<additional> 
<inductionLoop id="htddj_gsndj__29257863#2_0__29257863#2__10" lane="29257863#2_0" freq="360" file="e1output_lane_start.out.xml" pos="10" friendlyPos="x" /> 
<inductionLoop id="htddj_gsndj__29257863#2_1__29257863#2__10" lane="29257863#2_1" freq="360" file="e1output_lane_start.out.xml" pos="10" friendlyPos="x" /> 
<inductionLoop id="htddj_gsndj__29257863#2_2__29257863#2__10" lane="29257863#2_2" freq="360" file="e1output_lane_start.out.xml" pos="10" friendlyPos="x" /> 
<inductionLoop id="htddj_gsndj__29257863#2_3__29257863#2__10" lane="29257863#2_3" freq="360" file="e1output_lane_start.out.xml" pos="10" friendlyPos="x" /> 
<inductionLoop id="htddj_gsndj__29257863#2_4__29257863#2__10" lane="29257863#2_4" freq="360" file="e1output_lane_start.out.xml" pos="10" friendlyPos="x" /> 
<inductionLoop id="htddj_gsndj__gsndj_n7_0__gsndj_n7__10" lane="gsndj_n7_0" freq="360" file="e1output_lane_start.out.xml" pos="10" friendlyPos="x" /> 
<inductionLoop id="htddj_gsndj__gsndj_n7_1__gsndj_n7__10" lane="gsndj_n7_1" freq="360" file="e1output_lane_start.out.xml" pos="10" friendlyPos="x" /> 
<inductionLoop id="htddj_gsndj__gsndj_n7_2__gsndj_n7__10" lane="gsndj_n7_2" freq="360" file="e1output_lane_start.out.xml" pos="10" friendlyPos="x" /> 
<inductionLoop id="htddj_gsndj__gsndj_n7_3__gsndj_n7__10" lane="gsndj_n7_3" freq="360" file="e1output_lane_start.out.xml" pos="10" friendlyPos="x" /> 
<inductionLoop id="htddj_gsndj__161701303#7.248_0__161701303#7.248__10" lane="161701303#7.248_0" freq="360" file="e1output_lane_start.out.xml" pos="10" friendlyPos="x" /> 
<inductionLoop id="htddj_gsndj__161701303#7.248_1__161701303#7.248__10" lane="161701303#7.248_1" freq="360" file="e1output_lane_start.out.xml" pos="10" friendlyPos="x" /> 
<inductionLoop id="htddj_gsndj__161701303#7.248_2__161701303#7.248__10" lane="161701303#7.248_2" freq="360" file="e1output_lane_start.out.xml" pos="10" friendlyPos="x" /> 
<inductionLoop id="htddj_gsndj__161701303#7.248_3__161701303#7.248__10" lane="161701303#7.248_3" freq="360" file="e1output_lane_start.out.xml" pos="10" friendlyPos="x" /> 
<inductionLoop id="htddj_gsndj__gsndj_s4_0__gsndj_s4__10" lane="gsndj_s4_0" freq="360" file="e1output_lane_start.out.xml" pos="10" friendlyPos="x" /> 
<inductionLoop id="htddj_gsndj__gsndj_s4_1__gsndj_s4__10" lane="gsndj_s4_1" freq="360" file="e1output_lane_start.out.xml" pos="10" friendlyPos="x" /> 
<inductionLoop id="htddj_gsndj__gsndj_s4_2__gsndj_s4__10" lane="gsndj_s4_2" freq="360" file="e1output_lane_start.out.xml" pos="10" friendlyPos="x" /> 
<inductionLoop id="htddj_gsndj__gsndj_s4_3__gsndj_s4__10" lane="gsndj_s4_3" freq="360" file="e1output_lane_start.out.xml" pos="10" friendlyPos="x" /> 
<inductionLoop id="ftddj_frj__gneE27_0__gneE27__10" lane="gneE27_0" freq="360" file="e1output_lane_start.out.xml" pos="10" friendlyPos="x" /> 
<inductionLoop id="ftddj_frj__gneE27_1__gneE27__10" lane="gneE27_1" freq="360" file="e1output_lane_start.out.xml" pos="10" friendlyPos="x" /> 
<inductionLoop id="ftddj_frj__gneE27_2__gneE27__10" lane="gneE27_2" freq="360" file="e1output_lane_start.out.xml" pos="10" friendlyPos="x" /> 
<inductionLoop id="ftddj_frj__gneE27_3__gneE27__10" lane="gneE27_3" freq="360" file="e1output_lane_start.out.xml" pos="10" friendlyPos="x" /> 
<inductionLoop id="ftddj_frj__hrj_n5_0__hrj_n5__10" lane="hrj_n5_0" freq="360" file="e1output_lane_start.out.xml" pos="10" friendlyPos="x" /> 
<inductionLoop id="ftddj_frj__hrj_n5_1__hrj_n5__10" lane="hrj_n5_1" freq="360" file="e1output_lane_start.out.xml" pos="10" friendlyPos="x" /> 
<inductionLoop id="ftddj_frj__hrj_n5_2__hrj_n5__10" lane="hrj_n5_2" freq="360" file="e1output_lane_start.out.xml" pos="10" friendlyPos="x" /> 
<inductionLoop id="ftddj_frj__161701303#10_0__161701303#10__10" lane="161701303#10_0" freq="360" file="e1output_lane_start.out.xml" pos="10" friendlyPos="x" /> 
<inductionLoop id="ftddj_frj__161701303#10_1__161701303#10__10" lane="161701303#10_1" freq="360" file="e1output_lane_start.out.xml" pos="10" friendlyPos="x" /> 
<inductionLoop id="ftddj_frj__161701303#10_2__161701303#10__10" lane="161701303#10_2" freq="360" file="e1output_lane_start.out.xml" pos="10" friendlyPos="x" /> 
<inductionLoop id="ftddj_frj__161701303#10_3__161701303#10__10" lane="161701303#10_3" freq="360" file="e1output_lane_start.out.xml" pos="10" friendlyPos="x" /> 
<inductionLoop id="ftddj_frj__hrj_s4_0__hrj_s4__10" lane="hrj_s4_0" freq="360" file="e1output_lane_start.out.xml" pos="10" friendlyPos="x" /> 
<inductionLoop id="ftddj_frj__hrj_s4_1__hrj_s4__10" lane="hrj_s4_1" freq="360" file="e1output_lane_start.out.xml" pos="10" friendlyPos="x" /> 
<inductionLoop id="ftddj_frj__hrj_s4_2__hrj_s4__10" lane="hrj_s4_2" freq="360" file="e1output_lane_start.out.xml" pos="10" friendlyPos="x" /> 
<inductionLoop id="ftddj_wjj__-72631490#0_0__-72631490#0__10" lane="-72631490#0_0" freq="360" file="e1output_lane_start.out.xml" pos="10" friendlyPos="x" /> 
<inductionLoop id="ftddj_wjj__-72631490#0_1__-72631490#0__10" lane="-72631490#0_1" freq="360" file="e1output_lane_start.out.xml" pos="10" friendlyPos="x" /> 
<inductionLoop id="ftddj_wjj__-72631490#0_2__-72631490#0__10" lane="-72631490#0_2" freq="360" file="e1output_lane_start.out.xml" pos="10" friendlyPos="x" /> 
<inductionLoop id="ftddj_wjj__wjj_n9_0__wjj_n9__10" lane="wjj_n9_0" freq="360" file="e1output_lane_start.out.xml" pos="10" friendlyPos="x" /> 
<inductionLoop id="ftddj_wjj__wjj_n9_1__wjj_n9__10" lane="wjj_n9_1" freq="360" file="e1output_lane_start.out.xml" pos="10" friendlyPos="x" /> 
<inductionLoop id="ftddj_wjj__wjj_n9_2__wjj_n9__10" lane="wjj_n9_2" freq="360" file="e1output_lane_start.out.xml" pos="10" friendlyPos="x" /> 
<inductionLoop id="ftddj_wjj__-gneE26_0__-gneE26__10" lane="-gneE26_0" freq="360" file="e1output_lane_start.out.xml" pos="10" friendlyPos="x" /> 
<inductionLoop id="ftddj_wjj__-gneE26_1__-gneE26__10" lane="-gneE26_1" freq="360" file="e1output_lane_start.out.xml" pos="10" friendlyPos="x" /> 
<inductionLoop id="ftddj_wjj__-gneE26_2__-gneE26__10" lane="-gneE26_2" freq="360" file="e1output_lane_start.out.xml" pos="10" friendlyPos="x" /> 
<inductionLoop id="ftddj_wjj__wjj_s9_0__wjj_s9__10" lane="wjj_s9_0" freq="360" file="e1output_lane_start.out.xml" pos="10" friendlyPos="x" /> 
<inductionLoop id="ftddj_wjj__wjj_s9_1__wjj_s9__10" lane="wjj_s9_1" freq="360" file="e1output_lane_start.out.xml" pos="10" friendlyPos="x" /> 
<inductionLoop id="ftddj_wjj__wjj_s9_2__wjj_s9__10" lane="wjj_s9_2" freq="360" file="e1output_lane_start.out.xml" pos="10" friendlyPos="x" /> 
</additional> 
