<?xml version="1.0" encoding="UTF-8"?>

<!-- generated on 05/12/21 13:36:41 by Eclipse SUMO jtrrouter Version 1.7.0
<configuration xmlns:xsi="http://www.w3.org/2001/XMLSchema-instance" xsi:noNamespaceSchemaLocation="http://sumo.dlr.de/xsd/jtrrouterConfiguration.xsd">

    <input>
        <net-file value="D:\SenseTime\A_Project\TrafficScene\env/0x06_multi_nodes_cases\rl_wj.net.xml"/>
        <route-files value="D:\SenseTime\A_Project\TrafficScene\env/0x06_multi_nodes_cases\testflow.trip.xml"/>
        <turn-ratio-files value="D:\SenseTime\A_Project\TrafficScene\env/0x06_multi_nodes_cases\testflow.turndefs.xml"/>
    </input>

    <output>
        <output-file value="D:\SenseTime\A_Project\TrafficScene\env\0x06_multi_nodes_cases\testflow.rou.xml"/>
    </output>

    <processing>
        <no-internal-links value="true"/>
        <randomize-flows value="true"/>
        <remove-loops value="true"/>
        <accept-all-destinations value="true"/>
    </processing>

    <defaults>
        <departlane value="random"/>
    </defaults>

    <report>
        <no-warnings value="true"/>
    </report>

    <random_number>
        <seed value="777"/>
    </random_number>

</configuration>
-->

<routes xmlns:xsi="http://www.w3.org/2001/XMLSchema-instance" xsi:noNamespaceSchemaLocation="http://sumo.dlr.de/xsd/routes_file.xsd">
    <vType id="type_2" length="4.00" color="52,73,94" tau="1.0"/>
    <vehicle id="wjj_n9__0.0" type="type_2" depart="0.84" departLane="random">
        <route edges="wjj_n9 wjj_n8 wjj_n7"/>
    </vehicle>
    <vType id="type_12" length="4.00" color="127,140,141" tau="2.0"/>
    <vehicle id="161701303#5__0.0" type="type_12" depart="3.58" departLane="random">
        <route edges="161701303#5 161701303#6 161701303#7 161701303#7.248 gsndj_s5 gsndj_s6 gsndj_s7"/>
    </vehicle>
    <vType id="type_10" length="3.00" color="26,188,156" tau="2.0"/>
    <vehicle id="wjj_s9__0.0" type="type_10" depart="4.16" departLane="random">
        <route edges="wjj_s9 gneE26 gneE27 hrj_s5 hrj_s6 hrj_s7 hrj_s8"/>
    </vehicle>
    <vType id="type_14" length="5.00" color="127,140,141" tau="2.0"/>
    <vehicle id="hrj_s4__0.0" type="type_14" depart="5.68" departLane="random">
        <route edges="hrj_s4 -gneE27 -gneE26 wjj_n8 wjj_n7"/>
    </vehicle>
    <vehicle id="-72631490#0__0.0" type="type_10" depart="5.99" departLane="random">
        <route edges="-72631490#0 wjj_n8 wjj_n7"/>
    </vehicle>
    <vehicle id="gsndj_s3__0.0" type="type_2" depart="6.54" departLane="random">
        <route edges="gsndj_s3 gsndj_s4 161701303#10 hrj_s5 hrj_s6 hrj_s7 hrj_s8"/>
    </vehicle>
    <vehicle id="gsndj_s3__0.1" type="type_2" depart="6.80" departLane="random">
        <route edges="gsndj_s3 gsndj_s4 29257863#5 29257863#6 29257863#7 29257863#8"/>
    </vehicle>
    <vehicle id="hrj_s4__0.1" type="type_14" depart="7.71" departLane="random">
        <route edges="hrj_s4 hrj_s5 hrj_s6 hrj_s7 hrj_s8"/>
    </vehicle>
    <vehicle id="wjj_s9__0.1" type="type_10" depart="7.95" departLane="random">
        <route edges="wjj_s9 wjj_s10 wjj_s11 wjj_s12 wjj_s13 wjj_s14"/>
    </vehicle>
    <vType id="type_16" length="3.50" color="189,195,199" tau="2.5"/>
    <vehicle id="hrj_n8__0.0" type="type_16" depart="10.82" departLane="random">
        <route edges="hrj_n8 hrj_n7 hrj_n6 hrj_n5 -gneE27 -gneE26 wjj_n8 wjj_n7"/>
    </vehicle>
    <vehicle id="161701303#5__0.1" type="type_12" depart="10.88" departLane="random">
        <route edges="161701303#5 161701303#6 161701303#7 161701303#7.248 161701303#10 -gneE27 -gneE26 wjj_n8 wjj_n7"/>
    </vehicle>
    <vehicle id="gsndj_s3__0.2" type="type_2" depart="11.03" departLane="random">
        <route edges="gsndj_s3 gsndj_s4 161701303#10 hrj_s5 hrj_s6 hrj_s7 hrj_s8"/>
    </vehicle>
    <vehicle id="gsndj_s3__0.3" type="type_2" depart="12.32" departLane="random">
        <route edges="gsndj_s3 gsndj_s4 gsndj_s5 gsndj_s6 gsndj_s7"/>
    </vehicle>
    <vehicle id="wjj_n9__0.1" type="type_2" depart="15.68" departLane="random">
        <route edges="wjj_n9 wjj_n8 wjj_n7"/>
    </vehicle>
    <vType id="type_7" length="4.00" color="52,73,94" tau="1.5"/>
    <vehicle id="gsndj_n10__0.0" type="type_7" depart="15.93" departLane="random">
        <route edges="gsndj_n10 gsndj_n9 gsndj_n8 gsndj_n7 29257863#5 29257863#6 29257863#7 29257863#8"/>
    </vehicle>
    <vehicle id="wjj_n9__0.2" type="type_2" depart="16.75" departLane="random">
        <route edges="wjj_n9 wjj_n8 wjj_n7"/>
    </vehicle>
    <vehicle id="161701303#5__0.2" type="type_12" depart="17.37" departLane="random">
        <route edges="161701303#5 161701303#6 161701303#7 161701303#7.248 gsndj_s5 gsndj_s6 gsndj_s7"/>
    </vehicle>
    <vehicle id="hrj_n8__0.1" type="type_16" depart="19.28" departLane="random">
        <route edges="hrj_n8 hrj_n7 hrj_n6 hrj_n5 29257863#2 gsndj_n6 gsndj_n5 gsndj_n4"/>
    </vehicle>
    <vehicle id="hrj_n8__0.2" type="type_16" depart="20.32" departLane="random">
        <route edges="hrj_n8 hrj_n7 hrj_n6 hrj_n5 29257863#2 gsndj_n6 gsndj_n5 gsndj_n4"/>
    </vehicle>
    <vehicle id="wjj_n9__0.3" type="type_2" depart="23.35" departLane="random">
        <route edges="wjj_n9 72631490#0 72631490#1"/>
    </vehicle>
    <vehicle id="-72631490#0__0.1" type="type_10" depart="25.22" departLane="random">
        <route edges="-72631490#0 gneE26 gneE27 hrj_n4"/>
    </vehicle>
    <vehicle id="gsndj_s3__0.4" type="type_2" depart="25.90" departLane="random">
        <route edges="gsndj_s3 gsndj_s4 gsndj_s5 gsndj_s6 gsndj_s7"/>
    </vehicle>
    <vehicle id="gsndj_n10__0.1" type="type_7" depart="26.70" departLane="random">
        <route edges="gsndj_n10 gsndj_n9 gsndj_n8 gsndj_n7 161701303#10 hrj_n4"/>
    </vehicle>
    <vehicle id="hrj_n8__0.3" type="type_16" depart="26.95" departLane="random">
        <route edges="hrj_n8 hrj_n7 hrj_n6 hrj_n5 29257863#2 29257863#5 29257863#6 29257863#7 29257863#8"/>
    </vehicle>
    <vehicle id="-72631490#0__0.2" type="type_10" depart="28.29" departLane="random">
        <route edges="-72631490#0 wjj_n8 wjj_n7"/>
    </vehicle>
    <vehicle id="161701303#5__0.3" type="type_12" depart="28.79" departLane="random">
        <route edges="161701303#5 161701303#6 161701303#7 161701303#7.248 gsndj_n6 gsndj_n5 gsndj_n4"/>
    </vehicle>
    <vehicle id="-72631490#0__0.3" type="type_10" depart="33.66" departLane="random">
        <route edges="-72631490#0 gneE26 gneE27 29257863#2 gsndj_n6 gsndj_n5 gsndj_n4"/>
    </vehicle>
    <vehicle id="hrj_s4__0.2" type="type_14" depart="35.91" departLane="random">
        <route edges="hrj_s4 29257863#2 gsndj_n6 gsndj_n5 gsndj_n4"/>
    </vehicle>
    <vehicle id="gsndj_n10__0.2" type="type_7" depart="36.79" departLane="random">
        <route edges="gsndj_n10 gsndj_n9 gsndj_n8 gsndj_n7 161701303#10 hrj_s5 hrj_s6 hrj_s7 hrj_s8"/>
    </vehicle>
    <vehicle id="gsndj_n10__0.3" type="type_7" depart="40.54" departLane="random">
        <route edges="gsndj_n10 gsndj_n9 gsndj_n8 gsndj_n7 29257863#5 29257863#6 29257863#7 29257863#8"/>
    </vehicle>
    <vehicle id="gsndj_s3__0.5" type="type_2" depart="40.85" departLane="random">
        <route edges="gsndj_s3 gsndj_s4 29257863#5 29257863#6 29257863#7 29257863#8"/>
    </vehicle>
    <vehicle id="hrj_n8__0.4" type="type_16" depart="41.30" departLane="random">
        <route edges="hrj_n8 hrj_n7 hrj_n6 hrj_n5 29257863#2 29257863#5 29257863#6 29257863#7 29257863#8"/>
    </vehicle>
    <vehicle id="-72631490#0__0.4" type="type_10" depart="43.19" departLane="random">
        <route edges="-72631490#0 gneE26 gneE27 hrj_s5 hrj_s6 hrj_s7 hrj_s8"/>
    </vehicle>
    <vehicle id="161701303#5__0.4" type="type_12" depart="44.46" departLane="random">
        <route edges="161701303#5 161701303#6 161701303#7 161701303#7.248 gsndj_s5 gsndj_s6 gsndj_s7"/>
    </vehicle>
    <vehicle id="wjj_n9__0.4" type="type_2" depart="46.02" departLane="random">
        <route edges="wjj_n9 gneE26 gneE27 hrj_s5 hrj_s6 hrj_s7 hrj_s8"/>
    </vehicle>
    <vehicle id="wjj_s9__0.2" type="type_10" depart="46.02" departLane="random">
        <route edges="wjj_s9 wjj_s10 wjj_s11 wjj_s12 wjj_s13 wjj_s14"/>
    </vehicle>
    <vehicle id="gsndj_n10__0.4" type="type_7" depart="47.92" departLane="random">
        <route edges="gsndj_n10 gsndj_n9 gsndj_n8 gsndj_n7 gsndj_n6 gsndj_n5 gsndj_n4"/>
    </vehicle>
    <vehicle id="hrj_s4__0.3" type="type_14" depart="48.23" departLane="random">
        <route edges="hrj_s4 29257863#2 29257863#5 29257863#6 29257863#7 29257863#8"/>
    </vehicle>
    <vehicle id="wjj_s9__0.3" type="type_10" depart="51.52" departLane="random">
        <route edges="wjj_s9 72631490#0 72631490#1"/>
    </vehicle>
    <vehicle id="gsndj_n10__0.5" type="type_7" depart="52.13" departLane="random">
        <route edges="gsndj_n10 gsndj_n9 gsndj_n8 gsndj_n7 161701303#10 -gneE27 -gneE26 wjj_n8 wjj_n7"/>
    </vehicle>
    <vehicle id="wjj_s9__0.4" type="type_10" depart="53.45" departLane="random">
        <route edges="wjj_s9 72631490#0 72631490#1"/>
    </vehicle>
    <vehicle id="161701303#5__0.5" type="type_12" depart="54.94" departLane="random">
        <route edges="161701303#5 161701303#6 161701303#7 161701303#7.248 161701303#10 hrj_s5 hrj_s6 hrj_s7 hrj_s8"/>
    </vehicle>
    <vehicle id="hrj_s4__0.4" type="type_14" depart="56.15" departLane="random">
        <route edges="hrj_s4 hrj_s5 hrj_s6 hrj_s7 hrj_s8"/>
    </vehicle>
    <vehicle id="161701303#5__1.0" type="type_14" depart="60.03" departLane="random">
        <route edges="161701303#5 161701303#6 161701303#7 161701303#7.248 gsndj_n6 gsndj_n5 gsndj_n4"/>
    </vehicle>
    <vType id="type_19" length="5.00" color="243,156,18" tau="2.5"/>
    <vehicle id="hrj_n8__1.0" type="type_19" depart="61.54" departLane="random">
        <route edges="hrj_n8 hrj_n7 hrj_n6 hrj_n5 -gneE27 -gneE26 72631490#0 72631490#1"/>
    </vehicle>
    <vehicle id="wjj_n9__1.0" type="type_2" depart="61.72" departLane="random">
        <route edges="wjj_n9 wjj_n8 wjj_n7"/>
    </vehicle>
    <vehicle id="hrj_n8__1.1" type="type_19" depart="63.43" departLane="random">
        <route edges="hrj_n8 hrj_n7 hrj_n6 hrj_n5 -gneE27 -gneE26 wjj_s10 wjj_s11 wjj_s12 wjj_s13 wjj_s14"/>
    </vehicle>
    <vehicle id="wjj_n9__1.1" type="type_2" depart="63.47" departLane="random">
        <route edges="wjj_n9 gneE26 gneE27 hrj_n4"/>
    </vehicle>
    <vehicle id="161701303#5__1.1" type="type_14" depart="64.54" departLane="random">
        <route edges="161701303#5 161701303#6 161701303#7 161701303#7.248 gsndj_n6 gsndj_n5 gsndj_n4"/>
    </vehicle>
    <vehicle id="161701303#5__1.2" type="type_14" depart="69.31" departLane="random">
        <route edges="161701303#5 161701303#6 161701303#7 161701303#7.248 gsndj_n6 gsndj_n5 gsndj_n4"/>
    </vehicle>
    <vehicle id="wjj_n9__1.2" type="type_2" depart="70.17" departLane="random">
        <route edges="wjj_n9 wjj_n8 wjj_n7"/>
    </vehicle>
    <vehicle id="gsndj_s3__1.0" type="type_2" depart="71.26" departLane="random">
        <route edges="gsndj_s3 gsndj_s4 29257863#5 29257863#6 29257863#7 29257863#8"/>
    </vehicle>
    <vehicle id="wjj_n9__1.3" type="type_2" depart="72.29" departLane="random">
        <route edges="wjj_n9 wjj_n8 wjj_n7"/>
    </vehicle>
    <vType id="type_17" length="4.00" color="127,140,141" tau="2.5"/>
    <vehicle id="hrj_s4__1.0" type="type_17" depart="72.41" departLane="random">
        <route edges="hrj_s4 hrj_s5 hrj_s6 hrj_s7 hrj_s8"/>
    </vehicle>
    <vehicle id="hrj_s4__1.1" type="type_17" depart="73.67" departLane="random">
        <route edges="hrj_s4 hrj_s5 hrj_s6 hrj_s7 hrj_s8"/>
    </vehicle>
    <vehicle id="wjj_s9__1.0" type="type_2" depart="74.01" departLane="random">
        <route edges="wjj_s9 gneE26 gneE27 hrj_n4"/>
    </vehicle>
    <vehicle id="161701303#5__1.3" type="type_14" depart="75.08" departLane="random">
        <route edges="161701303#5 161701303#6 161701303#7 161701303#7.248 gsndj_s5 gsndj_s6 gsndj_s7"/>
    </vehicle>
    <vehicle id="gsndj_s3__1.1" type="type_2" depart="75.59" departLane="random">
        <route edges="gsndj_s3 gsndj_s4 29257863#5 29257863#6 29257863#7 29257863#8"/>
    </vehicle>
    <vehicle id="hrj_n8__1.2" type="type_19" depart="76.46" departLane="random">
        <route edges="hrj_n8 hrj_n7 hrj_n6 hrj_n5 29257863#2 gsndj_s5 gsndj_s6 gsndj_s7"/>
    </vehicle>
    <vehicle id="hrj_s4__1.2" type="type_17" depart="76.73" departLane="random">
        <route edges="hrj_s4 -gneE27 244010340 171860081#14 171867665 171860093#2 171867668 244010345#1 wjj_s11 wjj_s12 wjj_s13 wjj_s14"/>
    </vehicle>
    <vehicle id="gsndj_s3__1.2" type="type_2" depart="78.84" departLane="random">
        <route edges="gsndj_s3 gsndj_s4 161701303#10 hrj_s5 hrj_s6 hrj_s7 hrj_s8"/>
    </vehicle>
    <vehicle id="hrj_s4__1.3" type="type_17" depart="80.50" departLane="random">
        <route edges="hrj_s4 29257863#2 29257863#5 29257863#6 29257863#7 29257863#8"/>
    </vehicle>
    <vehicle id="wjj_s9__1.1" type="type_2" depart="83.16" departLane="random">
        <route edges="wjj_s9 gneE26 gneE27 29257863#2 gsndj_n6 gsndj_n5 gsndj_n4"/>
    </vehicle>
    <vehicle id="-72631490#0__1.0" type="type_17" depart="85.86" departLane="random">
        <route edges="-72631490#0 gneE26 gneE27 hrj_n4"/>
    </vehicle>
    <vehicle id="gsndj_n10__1.0" type="type_12" depart="86.23" departLane="random">
        <route edges="gsndj_n10 gsndj_n9 gsndj_n8 gsndj_n7 161701303#10 hrj_n4"/>
    </vehicle>
    <vehicle id="gsndj_n10__1.1" type="type_12" depart="86.40" departLane="random">
        <route edges="gsndj_n10 gsndj_n9 gsndj_n8 gsndj_n7 gsndj_n6 gsndj_n5 gsndj_n4"/>
    </vehicle>
    <vehicle id="wjj_s9__1.2" type="type_2" depart="87.35" departLane="random">
        <route edges="wjj_s9 72631490#0 72631490#1"/>
    </vehicle>
    <vehicle id="gsndj_s3__1.3" type="type_2" depart="89.83" departLane="random">
        <route edges="gsndj_s3 gsndj_s4 gsndj_s5 gsndj_s6 gsndj_s7"/>
    </vehicle>
    <vehicle id="gsndj_n10__1.2" type="type_12" depart="90.89" departLane="random">
        <route edges="gsndj_n10 gsndj_n9 gsndj_n8 gsndj_n7 gsndj_n6 gsndj_n5 gsndj_n4"/>
    </vehicle>
    <vehicle id="gsndj_n10__1.3" type="type_12" depart="91.08" departLane="random">
        <route edges="gsndj_n10 gsndj_n9 gsndj_n8 gsndj_n7 161701303#10 hrj_n4"/>
    </vehicle>
    <vehicle id="-72631490#0__1.1" type="type_17" depart="91.85" departLane="random">
        <route edges="-72631490#0 gneE26 gneE27 hrj_s5 hrj_s6 hrj_s7 hrj_s8"/>
    </vehicle>
    <vehicle id="-72631490#0__1.2" type="type_17" depart="95.70" departLane="random">
        <route edges="-72631490#0 wjj_s10 wjj_s11 wjj_s12 wjj_s13 wjj_s14"/>
    </vehicle>
    <vehicle id="hrj_s4__1.4" type="type_17" depart="97.85" departLane="random">
        <route edges="hrj_s4 29257863#2 gsndj_n6 gsndj_n5 gsndj_n4"/>
    </vehicle>
    <vehicle id="gsndj_n10__1.4" type="type_12" depart="99.15" departLane="random">
        <route edges="gsndj_n10 gsndj_n9 gsndj_n8 gsndj_n7 161701303#10 hrj_s5 hrj_s6 hrj_s7 hrj_s8"/>
    </vehicle>
    <vehicle id="hrj_n8__1.3" type="type_19" depart="102.87" departLane="random">
        <route edges="hrj_n8 hrj_n7 hrj_n6 hrj_n5 29257863#2 gsndj_n6 gsndj_n5 gsndj_n4"/>
    </vehicle>
    <vehicle id="gsndj_s3__1.4" type="type_2" depart="103.28" departLane="random">
        <route edges="gsndj_s3 gsndj_s4 161701303#10 hrj_n4"/>
    </vehicle>
    <vehicle id="wjj_s9__1.3" type="type_2" depart="104.98" departLane="random">
        <route edges="wjj_s9 wjj_s10 wjj_s11 wjj_s12 wjj_s13 wjj_s14"/>
    </vehicle>
    <vehicle id="hrj_n8__1.4" type="type_19" depart="105.90" departLane="random">
        <route edges="hrj_n8 hrj_n7 hrj_n6 hrj_n5 -gneE27 244010340 171860081#14 171867665 171860093#2 171860093#3 171860093#4 171860093#5 171860093#6 -171867663 -171860080#0 wjj_n7"/>
    </vehicle>
    <vehicle id="wjj_s9__1.4" type="type_2" depart="107.92" departLane="random">
        <route edges="wjj_s9 gneE26 gneE27 hrj_n4"/>
    </vehicle>
    <vehicle id="gsndj_n10__1.5" type="type_12" depart="108.14" departLane="random">
        <route edges="gsndj_n10 gsndj_n9 gsndj_n8 gsndj_n7 29257863#5 29257863#6 29257863#7 29257863#8"/>
    </vehicle>
    <vehicle id="161701303#5__1.4" type="type_14" depart="109.14" departLane="random">
        <route edges="161701303#5 161701303#6 161701303#7 161701303#7.248 gsndj_s5 gsndj_s6 gsndj_s7"/>
    </vehicle>
    <vehicle id="-72631490#0__1.3" type="type_17" depart="110.44" departLane="random">
        <route edges="-72631490#0 gneE26 gneE27 hrj_s5 hrj_s6 hrj_s7 hrj_s8"/>
    </vehicle>
    <vehicle id="wjj_n9__1.4" type="type_2" depart="110.49" departLane="random">
        <route edges="wjj_n9 gneE26 gneE27 hrj_n4"/>
    </vehicle>
    <vehicle id="gsndj_s3__1.5" type="type_2" depart="111.42" departLane="random">
        <route edges="gsndj_s3 gsndj_s4 161701303#10 hrj_s5 hrj_s6 hrj_s7 hrj_s8"/>
    </vehicle>
    <vehicle id="-72631490#0__1.4" type="type_17" depart="112.24" departLane="random">
        <route edges="-72631490#0 wjj_n8 wjj_n7"/>
    </vehicle>
    <vehicle id="gsndj_s3__1.6" type="type_2" depart="113.47" departLane="random">
        <route edges="gsndj_s3 gsndj_s4 161701303#10 hrj_s5 hrj_s6 hrj_s7 hrj_s8"/>
    </vehicle>
    <vehicle id="161701303#5__1.5" type="type_14" depart="114.52" departLane="random">
        <route edges="161701303#5 161701303#6 161701303#7 161701303#7.248 gsndj_s5 gsndj_s6 gsndj_s7"/>
    </vehicle>
    <vehicle id="161701303#5__1.6" type="type_14" depart="117.89" departLane="random">
        <route edges="161701303#5 161701303#6 161701303#7 161701303#7.248 gsndj_s5 gsndj_s6 gsndj_s7"/>
    </vehicle>
    <vehicle id="gsndj_n10__1.6" type="type_12" depart="119.78" departLane="random">
        <route edges="gsndj_n10 gsndj_n9 gsndj_n8 gsndj_n7 gsndj_n6 gsndj_n5 gsndj_n4"/>
    </vehicle>
    <vehicle id="gsndj_n10__2.0" type="type_17" depart="120.09" departLane="random">
        <route edges="gsndj_n10 gsndj_n9 gsndj_n8 gsndj_n7 29257863#5 29257863#6 29257863#7 29257863#8"/>
    </vehicle>
    <vehicle id="gsndj_n10__2.1" type="type_17" depart="120.19" departLane="random">
        <route edges="gsndj_n10 gsndj_n9 gsndj_n8 gsndj_n7 gsndj_n6 gsndj_n5 gsndj_n4"/>
    </vehicle>
    <vehicle id="wjj_n9__2.0" type="type_7" depart="120.29" departLane="random">
        <route edges="wjj_n9 72631490#0 72631490#1"/>
    </vehicle>
    <vehicle id="-72631490#0__2.0" type="type_19" depart="122.31" departLane="random">
        <route edges="-72631490#0 wjj_n8 wjj_n7"/>
    </vehicle>
    <vehicle id="gsndj_n10__2.2" type="type_17" depart="124.84" departLane="random">
        <route edges="gsndj_n10 gsndj_n9 gsndj_n8 gsndj_n7 gsndj_n6 gsndj_n5 gsndj_n4"/>
    </vehicle>
    <vehicle id="hrj_n8__2.0" type="type_12" depart="128.46" departLane="random">
        <route edges="hrj_n8 hrj_n7 hrj_n6 hrj_n5 hrj_n4"/>
    </vehicle>
    <vehicle id="hrj_s4__2.0" type="type_14" depart="128.53" departLane="random">
        <route edges="hrj_s4 hrj_s5 hrj_s6 hrj_s7 hrj_s8"/>
    </vehicle>
    <vehicle id="hrj_s4__2.1" type="type_14" depart="134.15" departLane="random">
        <route edges="hrj_s4 hrj_s5 hrj_s6 hrj_s7 hrj_s8"/>
    </vehicle>
    <vehicle id="gsndj_s3__2.0" type="type_17" depart="134.36" departLane="random">
        <route edges="gsndj_s3 gsndj_s4 29257863#5 29257863#6 29257863#7 29257863#8"/>
    </vehicle>
    <vehicle id="gsndj_s3__2.1" type="type_17" depart="136.26" departLane="random">
        <route edges="gsndj_s3 gsndj_s4 gsndj_s5 gsndj_s6 gsndj_s7"/>
    </vehicle>
    <vehicle id="wjj_n9__2.1" type="type_7" depart="137.86" departLane="random">
        <route edges="wjj_n9 wjj_n8 wjj_n7"/>
    </vehicle>
    <vehicle id="hrj_s4__2.2" type="type_14" depart="139.56" departLane="random">
        <route edges="hrj_s4 hrj_s5 hrj_s6 hrj_s7 hrj_s8"/>
    </vehicle>
    <vehicle id="-72631490#0__2.1" type="type_19" depart="143.38" departLane="random">
        <route edges="-72631490#0 gneE26 gneE27 hrj_n4"/>
    </vehicle>
    <vehicle id="wjj_n9__2.2" type="type_7" depart="144.00" departLane="random">
        <route edges="wjj_n9 72631490#0 72631490#1"/>
    </vehicle>
    <vehicle id="161701303#5__2.0" type="type_16" depart="144.69" departLane="random">
        <route edges="161701303#5 161701303#6 161701303#7 161701303#7.248 gsndj_n6 gsndj_n5 gsndj_n4"/>
    </vehicle>
    <vehicle id="wjj_n9__2.3" type="type_7" depart="145.38" departLane="random">
        <route edges="wjj_n9 wjj_n8 wjj_n7"/>
    </vehicle>
    <vehicle id="gsndj_n10__2.3" type="type_17" depart="145.80" departLane="random">
        <route edges="gsndj_n10 gsndj_n9 gsndj_n8 gsndj_n7 161701303#10 hrj_n4"/>
    </vehicle>
    <vehicle id="-72631490#0__2.2" type="type_19" depart="145.85" departLane="random">
        <route edges="-72631490#0 wjj_s10 wjj_s11 wjj_s12 wjj_s13 wjj_s14"/>
    </vehicle>
    <vehicle id="hrj_n8__2.1" type="type_12" depart="148.54" departLane="random">
        <route edges="hrj_n8 hrj_n7 hrj_n6 hrj_n5 hrj_n4"/>
    </vehicle>
    <vehicle id="gsndj_s3__2.2" type="type_17" depart="150.51" departLane="random">
        <route edges="gsndj_s3 gsndj_s4 gsndj_s5 gsndj_s6 gsndj_s7"/>
    </vehicle>
    <vehicle id="-72631490#0__2.3" type="type_19" depart="151.41" departLane="random">
        <route edges="-72631490#0 gneE26 gneE27 29257863#2 gsndj_s5 gsndj_s6 gsndj_s7"/>
    </vehicle>
    <vehicle id="hrj_s4__2.3" type="type_14" depart="151.76" departLane="random">
        <route edges="hrj_s4 29257863#2 gsndj_s5 gsndj_s6 gsndj_s7"/>
    </vehicle>
    <vehicle id="hrj_n8__2.2" type="type_12" depart="151.94" departLane="random">
        <route edges="hrj_n8 hrj_n7 hrj_n6 hrj_n5 hrj_n4"/>
    </vehicle>
    <vehicle id="hrj_n8__2.3" type="type_12" depart="152.29" departLane="random">
        <route edges="hrj_n8 hrj_n7 hrj_n6 hrj_n5 hrj_n4"/>
    </vehicle>
    <vType id="type_15" length="3.00" color="192,57,43" tau="2.5"/>
    <vehicle id="wjj_s9__2.0" type="type_15" depart="153.35" departLane="random">
        <route edges="wjj_s9 72631490#0 72631490#1"/>
    </vehicle>
    <vehicle id="wjj_s9__2.1" type="type_15" depart="153.66" departLane="random">
        <route edges="wjj_s9 wjj_s10 wjj_s11 wjj_s12 wjj_s13 wjj_s14"/>
    </vehicle>
    <vehicle id="wjj_s9__2.2" type="type_15" depart="154.35" departLane="random">
        <route edges="wjj_s9 gneE26 gneE27 29257863#2 gsndj_s5 gsndj_s6 gsndj_s7"/>
    </vehicle>
    <vehicle id="wjj_n9__2.4" type="type_7" depart="155.15" departLane="random">
        <route edges="wjj_n9 gneE26 gneE27 hrj_s5 hrj_s6 hrj_s7 hrj_s8"/>
    </vehicle>
    <vehicle id="gsndj_s3__2.3" type="type_17" depart="157.85" departLane="random">
        <route edges="gsndj_s3 gsndj_s4 161701303#10 hrj_s5 hrj_s6 hrj_s7 hrj_s8"/>
    </vehicle>
    <vehicle id="gsndj_n10__2.4" type="type_17" depart="159.52" departLane="random">
        <route edges="gsndj_n10 gsndj_n9 gsndj_n8 gsndj_n7 29257863#5 29257863#6 29257863#7 29257863#8"/>
    </vehicle>
    <vehicle id="gsndj_s3__2.4" type="type_17" depart="159.82" departLane="random">
        <route edges="gsndj_s3 gsndj_s4 gsndj_s5 gsndj_s6 gsndj_s7"/>
    </vehicle>
    <vehicle id="gsndj_n10__2.5" type="type_17" depart="162.11" departLane="random">
        <route edges="gsndj_n10 gsndj_n9 gsndj_n8 gsndj_n7 29257863#5 29257863#6 29257863#7 29257863#8"/>
    </vehicle>
    <vehicle id="161701303#5__2.1" type="type_16" depart="162.53" departLane="random">
        <route edges="161701303#5 161701303#6 161701303#7 161701303#7.248 161701303#10 -gneE27 -gneE26 wjj_n8 wjj_n7"/>
    </vehicle>
    <vehicle id="wjj_s9__2.3" type="type_15" depart="162.62" departLane="random">
        <route edges="wjj_s9 wjj_s10 wjj_s11 wjj_s12 wjj_s13 wjj_s14"/>
    </vehicle>
    <vehicle id="161701303#5__2.2" type="type_16" depart="163.32" departLane="random">
        <route edges="161701303#5 161701303#6 161701303#7 161701303#7.248 gsndj_n6 gsndj_n5 gsndj_n4"/>
    </vehicle>
    <vehicle id="-72631490#0__2.4" type="type_19" depart="163.50" departLane="random">
        <route edges="-72631490#0 gneE26 gneE27 hrj_n4"/>
    </vehicle>
    <vehicle id="161701303#5__2.3" type="type_16" depart="163.99" departLane="random">
        <route edges="161701303#5 161701303#6 161701303#7 161701303#7.248 gsndj_n6 gsndj_n5 gsndj_n4"/>
    </vehicle>
    <vehicle id="161701303#5__2.4" type="type_16" depart="164.08" departLane="random">
        <route edges="161701303#5 161701303#6 161701303#7 161701303#7.248 161701303#10 hrj_s5 hrj_s6 hrj_s7 hrj_s8"/>
    </vehicle>
    <vehicle id="wjj_s9__2.4" type="type_15" depart="164.42" departLane="random">
        <route edges="wjj_s9 gneE26 gneE27 29257863#2 gsndj_n6 gsndj_n5 gsndj_n4"/>
    </vehicle>
    <vehicle id="161701303#5__2.5" type="type_16" depart="165.08" departLane="random">
        <route edges="161701303#5 161701303#6 161701303#7 161701303#7.248 gsndj_s5 gsndj_s6 gsndj_s7"/>
    </vehicle>
    <vehicle id="gsndj_s3__2.5" type="type_17" depart="165.09" departLane="random">
        <route edges="gsndj_s3 gsndj_s4 29257863#5 29257863#6 29257863#7 29257863#8"/>
    </vehicle>
    <vehicle id="161701303#5__2.6" type="type_16" depart="167.20" departLane="random">
        <route edges="161701303#5 161701303#6 161701303#7 161701303#7.248 gsndj_s5 gsndj_s6 gsndj_s7"/>
    </vehicle>
    <vehicle id="hrj_s4__2.4" type="type_14" depart="169.49" departLane="random">
        <route edges="hrj_s4 -gneE27 -gneE26 wjj_s10 wjj_s11 wjj_s12 wjj_s13 wjj_s14"/>
    </vehicle>
    <vehicle id="gsndj_s3__2.6" type="type_17" depart="173.82" departLane="random">
        <route edges="gsndj_s3 gsndj_s4 161701303#10 -gneE27 244010340 171860081#14 171867665 171860093#2"/>
    </vehicle>
    <vehicle id="hrj_n8__2.4" type="type_12" depart="177.22" departLane="random">
        <route edges="hrj_n8 hrj_n7 hrj_n6 hrj_n5 -gneE27 -gneE26 72631490#0 72631490#1"/>
    </vehicle>
    <vehicle id="gsndj_n10__2.6" type="type_17" depart="178.72" departLane="random">
        <route edges="gsndj_n10 gsndj_n9 gsndj_n8 gsndj_n7 161701303#10 -gneE27 244010340 171860081#14 171867665 171860093#2 171867668 244010345#1 wjj_s11 wjj_s12 wjj_s13 wjj_s14"/>
    </vehicle>
    <vType id="type_11" length="3.50" color="39,174,96" tau="2.0"/>
    <vehicle id="gsndj_n10__3.0" type="type_11" depart="180.02" departLane="random">
        <route edges="gsndj_n10 gsndj_n9 gsndj_n8 gsndj_n7 161701303#10 hrj_s5 hrj_s6 hrj_s7 hrj_s8"/>
    </vehicle>
    <vType id="type_13" length="4.50" color="211,84,0" tau="2.0"/>
    <vehicle id="gsndj_s3__3.0" type="type_13" depart="181.00" departLane="random">
        <route edges="gsndj_s3 gsndj_s4 161701303#10 hrj_n4"/>
    </vehicle>
    <vehicle id="gsndj_n10__3.1" type="type_11" depart="181.48" departLane="random">
        <route edges="gsndj_n10 gsndj_n9 gsndj_n8 gsndj_n7 29257863#5 29257863#6 29257863#7 29257863#8"/>
    </vehicle>
    <vehicle id="wjj_n9__3.0" type="type_2" depart="183.60" departLane="random">
        <route edges="wjj_n9 72631490#0 72631490#1"/>
    </vehicle>
    <vehicle id="161701303#5__3.0" type="type_19" depart="185.41" departLane="random">
        <route edges="161701303#5 161701303#6 161701303#7 161701303#7.248 gsndj_s5 gsndj_s6 gsndj_s7"/>
    </vehicle>
    <vehicle id="hrj_s4__3.0" type="type_14" depart="188.79" departLane="random">
        <route edges="hrj_s4 hrj_s5 hrj_s6 hrj_s7 hrj_s8"/>
    </vehicle>
    <vehicle id="hrj_n8__3.0" type="type_17" depart="188.82" departLane="random">
        <route edges="hrj_n8 hrj_n7 hrj_n6 hrj_n5 -gneE27 -gneE26 wjj_s10 wjj_s11 wjj_s12 wjj_s13 wjj_s14"/>
    </vehicle>
    <vehicle id="wjj_n9__3.1" type="type_2" depart="189.26" departLane="random">
        <route edges="wjj_n9 gneE26 gneE27 29257863#2 gsndj_s5 gsndj_s6 gsndj_s7"/>
    </vehicle>
    <vehicle id="161701303#5__3.1" type="type_19" depart="189.59" departLane="random">
        <route edges="161701303#5 161701303#6 161701303#7 161701303#7.248 gsndj_n6 gsndj_n5 gsndj_n4"/>
    </vehicle>
    <vehicle id="gsndj_n10__3.2" type="type_11" depart="189.59" departLane="random">
        <route edges="gsndj_n10 gsndj_n9 gsndj_n8 gsndj_n7 29257863#5 29257863#6 29257863#7 29257863#8"/>
    </vehicle>
    <vehicle id="gsndj_s3__3.1" type="type_13" depart="193.75" departLane="random">
        <route edges="gsndj_s3 gsndj_s4 gsndj_s5 gsndj_s6 gsndj_s7"/>
    </vehicle>
    <vehicle id="161701303#5__3.2" type="type_19" depart="196.61" departLane="random">
        <route edges="161701303#5 161701303#6 161701303#7 161701303#7.248 gsndj_s5 gsndj_s6 gsndj_s7"/>
    </vehicle>
    <vehicle id="161701303#5__3.3" type="type_19" depart="197.09" departLane="random">
        <route edges="161701303#5 161701303#6 161701303#7 161701303#7.248 gsndj_s5 gsndj_s6 gsndj_s7"/>
    </vehicle>
    <vType id="type_4" length="5.00" color="22,160,133" tau="1.0"/>
    <vehicle id="wjj_s9__3.0" type="type_4" depart="197.41" departLane="random">
        <route edges="wjj_s9 wjj_s10 wjj_s11 wjj_s12 wjj_s13 wjj_s14"/>
    </vehicle>
    <vehicle id="hrj_s4__3.1" type="type_14" depart="198.82" departLane="random">
        <route edges="hrj_s4 29257863#2 29257863#5 29257863#6 29257863#7 29257863#8"/>
    </vehicle>
    <vehicle id="gsndj_n10__3.3" type="type_11" depart="199.11" departLane="random">
        <route edges="gsndj_n10 gsndj_n9 gsndj_n8 gsndj_n7 gsndj_n6 gsndj_n5 gsndj_n4"/>
    </vehicle>