<additional>
    <edgeData id="edge_measure_1" file="./edge_measure.out.xml"/>
</additional>
    