<?xml version="1.0" encoding="UTF-8"?>

<!-- generated on 03/05/21 14:45:40 by Eclipse SUMO jtrrouter Version 1.7.0
<configuration xmlns:xsi="http://www.w3.org/2001/XMLSchema-instance" xsi:noNamespaceSchemaLocation="http://sumo.dlr.de/xsd/jtrrouterConfiguration.xsd">

    <input>
        <net-file value=".\env\0x08_test_coordination\converted.net.xml"/>
        <route-files value=".\env\0x08_test_coordination\testflow.trip.xml"/>
        <turn-ratio-files value=".\env\0x08_test_coordination\testflow.turndefs.xml"/>
    </input>

    <output>
        <output-file value="env\0x08_test_coordination\route\2_eg.rou.xml"/>
    </output>

    <processing>
        <no-internal-links value="true"/>
        <randomize-flows value="true"/>
        <remove-loops value="true"/>
        <accept-all-destinations value="true"/>
    </processing>

    <defaults>
        <departlane value="random"/>
    </defaults>

    <report>
        <no-warnings value="true"/>
    </report>

    <random_number>
        <seed value="777"/>
    </random_number>

</configuration>
-->

<routes xmlns:xsi="http://www.w3.org/2001/XMLSchema-instance" xsi:noNamespaceSchemaLocation="http://sumo.dlr.de/xsd/routes_file.xsd">
    <vehicle id="gneE12__0.0" depart="0.09" departLane="random">
        <route edges="gneE12 gneE13"/>
    </vehicle>
    <vehicle id="gneE10__0.0" depart="0.25" departLane="random">
        <route edges="gneE10 gneE11"/>
    </vehicle>
    <vehicle id="gneE4__0.0" depart="0.46" departLane="random">
        <route edges="gneE4 gneE0.541 gneE0.541.343 gneE0.1045 gneE0.1045.284 gneE0.1544 gneE0.1544.203 gneE0.2111 gneE0.2111.251 gneE0.2507 gneE0.2507.311 gneE0.2492 gneE0.2492.146 gneE0.2805"/>
    </vehicle>
    <vehicle id="gneE8__0.0" depart="1.57" departLane="random">
        <route edges="gneE8 gneE0.1045 gneE0.1045.284 gneE0.1544 gneE0.1544.203 gneE0.2111 gneE0.2111.251 gneE27"/>
    </vehicle>
    <vehicle id="gneE18__0.0" depart="1.63" departLane="random">
        <route edges="gneE18 gneE1.754 gneE1.754.196 gneE1.1320 gneE1.1320.289 gneE1.1821 gneE1.1821.332 gneE3"/>
    </vehicle>
    <vehicle id="gneE8__0.1" depart="2.36" departLane="random">
        <route edges="gneE8 gneE0.1045 gneE0.1045.284 gneE0.1544 gneE0.1544.203 gneE0.2111 gneE0.2111.251 gneE0.2507 gneE0.2507.311 gneE0.2492 gneE0.2492.146 gneE0.2805"/>
    </vehicle>
    <vehicle id="gneE10__0.1" depart="2.47" departLane="random">
        <route edges="gneE10 gneE11"/>
    </vehicle>
    <vehicle id="gneE16__0.0" depart="2.55" departLane="random">
        <route edges="gneE16 gneE0.2111 gneE0.2111.251 gneE27"/>
    </vehicle>
    <vehicle id="gneE12__0.1" depart="2.62" departLane="random">
        <route edges="gneE12 gneE0.1544 gneE0.1544.203 gneE0.2111 gneE0.2111.251 gneE0.2507 gneE0.2507.311 gneE23"/>
    </vehicle>
    <vehicle id="gneE0__0.0" depart="2.98" departLane="random">
        <route edges="gneE0 gneE0.541 gneE0.541.343 gneE0.1045 gneE0.1045.284 gneE0.1544 gneE0.1544.203 gneE0.2111 gneE0.2111.251 gneE27"/>
    </vehicle>
    <vehicle id="gneE4__0.1" depart="3.11" departLane="random">
        <route edges="gneE4 gneE3"/>
    </vehicle>
    <vehicle id="gneE10__0.2" depart="3.39" departLane="random">
        <route edges="gneE10 gneE0.1045 gneE0.1045.284 gneE0.1544 gneE0.1544.203 gneE0.2111 gneE0.2111.251 gneE0.2507 gneE0.2507.311 gneE0.2492 gneE0.2492.146 gneE0.2805"/>
    </vehicle>
    <vehicle id="gneE0__0.1" depart="3.43" departLane="random">
        <route edges="gneE0 gneE0.541 gneE0.541.343 gneE9"/>
    </vehicle>
    <vehicle id="gneE0__0.2" depart="3.47" departLane="random">
        <route edges="gneE0 gneE0.541 gneE0.541.343 gneE9"/>
    </vehicle>
    <vehicle id="gneE8__0.2" depart="3.68" departLane="random">
        <route edges="gneE8 gneE0.1045 gneE0.1045.284 gneE0.1544 gneE0.1544.203 gneE0.2111 gneE0.2111.251 gneE0.2507 gneE0.2507.311 gneE0.2492 gneE0.2492.146 gneE0.2805"/>
    </vehicle>
    <vehicle id="gneE24__0.0" depart="4.10" departLane="random">
        <route edges="gneE24 gneE25"/>
    </vehicle>
    <vehicle id="gneE20__0.0" depart="4.13" departLane="random">
        <route edges="gneE20 gneE21"/>
    </vehicle>
    <vehicle id="gneE24__0.1" depart="4.26" departLane="random">
        <route edges="gneE24 gneE25"/>
    </vehicle>
    <vehicle id="gneE1__0.0" depart="4.74" departLane="random">
        <route edges="gneE1 gneE32"/>
    </vehicle>
    <vehicle id="gneE31__0.0" depart="4.83" departLane="random">
        <route edges="gneE31 gneE32"/>
    </vehicle>
    <vehicle id="gneE0__0.3" depart="4.93" departLane="random">
        <route edges="gneE0 gneE0.541 gneE0.541.343 gneE0.1045 gneE0.1045.284 gneE0.1544 gneE0.1544.203 gneE0.2111 gneE0.2111.251 gneE0.2507 gneE0.2507.311 gneE23"/>
    </vehicle>
    <vehicle id="gneE29__0.0" depart="5.31" departLane="random">
        <route edges="gneE29 gneE30"/>
    </vehicle>
    <vehicle id="gneE14__0.0" depart="5.68" departLane="random">
        <route edges="gneE14 gneE1.1320 gneE1.1320.289 gneE1.1821 gneE1.1821.332 gneE3"/>
    </vehicle>
    <vehicle id="gneE14__0.1" depart="6.27" departLane="random">
        <route edges="gneE14 gneE0.1544 gneE0.1544.203 gneE0.2111 gneE0.2111.251 gneE0.2507 gneE0.2507.311 gneE21"/>
    </vehicle>
    <vehicle id="gneE31__0.1" depart="7.06" departLane="random">
        <route edges="gneE31 gneE32"/>
    </vehicle>
    <vehicle id="gneE22__0.0" depart="7.37" departLane="random">
        <route edges="gneE22 gneE1.374 gneE1.374.327 gneE1.786 gneE1.786.239 gneE1.754 gneE1.754.196 gneE1.1320 gneE1.1320.289 gneE1.1821 gneE1.1821.332 gneE3"/>
    </vehicle>
    <vehicle id="gneE18__0.1" depart="7.45" departLane="random">
        <route edges="gneE18 gneE0.2111 gneE0.2111.251 gneE0.2507 gneE0.2507.311 gneE0.2492 gneE0.2492.146 gneE0.2805"/>
    </vehicle>
    <vehicle id="gneE1__0.1" depart="7.73" departLane="random">
        <route edges="gneE1 gneE1.412 gneE1.412.143 gneE1.374 gneE1.374.327 gneE1.786 gneE1.786.239 gneE1.754 gneE1.754.196 gneE1.1320 gneE1.1320.289 gneE1.1821 gneE1.1821.332 gneE3"/>
    </vehicle>
    <vehicle id="gneE16__0.1" depart="8.03" departLane="random">
        <route edges="gneE16 gneE17"/>
    </vehicle>
    <vehicle id="gneE31__0.2" depart="8.65" departLane="random">
        <route edges="gneE31 gneE1.412 gneE1.412.143 gneE1.374 gneE1.374.327 gneE1.786 gneE1.786.239 gneE1.754 gneE1.754.196 gneE1.1320 gneE1.1320.289 gneE1.1821 gneE1.1821.332 gneE3"/>
    </vehicle>
    <vehicle id="gneE26__0.0" depart="8.91" departLane="random">
        <route edges="gneE26 gneE1.786 gneE1.786.239 gneE1.754 gneE1.754.196 gneE1.1320 gneE1.1320.289 gneE1.1821 gneE1.1821.332 gneE3"/>
    </vehicle>
    <vehicle id="gneE20__0.1" depart="9.56" departLane="random">
        <route edges="gneE20 gneE1.374 gneE1.374.327 gneE1.786 gneE1.786.239 gneE1.754 gneE1.754.196 gneE1.1320 gneE1.1320.289 gneE1.1821 gneE1.1821.332 gneE3"/>
    </vehicle>
    <vehicle id="gneE1__0.2" depart="9.57" departLane="random">
        <route edges="gneE1 gneE30"/>
    </vehicle>
    <vehicle id="gneE8__0.3" depart="9.80" departLane="random">
        <route edges="gneE8 gneE0.1045 gneE0.1045.284 gneE0.1544 gneE0.1544.203 gneE0.2111 gneE0.2111.251 gneE0.2507 gneE0.2507.311 gneE23"/>
    </vehicle>
    <vehicle id="gneE8__0.4" depart="9.97" departLane="random">
        <route edges="gneE8 gneE9"/>
    </vehicle>
    <vehicle id="gneE1__0.3" depart="10.15" departLane="random">
        <route edges="gneE1 gneE1.412 gneE1.412.143 gneE1.374 gneE1.374.327 gneE1.786 gneE1.786.239 gneE1.754 gneE1.754.196 gneE1.1320 gneE1.1320.289 gneE1.1821 gneE1.1821.332 gneE3"/>
    </vehicle>
    <vehicle id="gneE0__0.4" depart="10.24" departLane="random">
        <route edges="gneE0 gneE0.541 gneE0.541.343 gneE0.1045 gneE0.1045.284 gneE0.1544 gneE0.1544.203 gneE0.2111 gneE0.2111.251 gneE0.2507 gneE0.2507.311 gneE0.2492 gneE0.2492.146 gneE0.2805"/>
    </vehicle>
    <vehicle id="gneE20__0.2" depart="10.61" departLane="random">
        <route edges="gneE20 gneE21"/>
    </vehicle>
    <vehicle id="gneE6__0.0" depart="10.93" departLane="random">
        <route edges="gneE6 gneE7"/>
    </vehicle>
    <vehicle id="gneE20__0.3" depart="11.59" departLane="random">
        <route edges="gneE20 gneE21"/>
    </vehicle>
    <vehicle id="gneE20__0.4" depart="11.89" departLane="random">
        <route edges="gneE20 gneE0.2492 gneE0.2492.146 gneE0.2805"/>
    </vehicle>
    <vehicle id="gneE0__0.5" depart="11.95" departLane="random">
        <route edges="gneE0 gneE0.541 gneE0.541.343 gneE9"/>
    </vehicle>
    <vehicle id="gneE31__0.3" depart="11.98" departLane="random">
        <route edges="gneE31 gneE1.412 gneE1.412.143 gneE1.374 gneE1.374.327 gneE1.786 gneE1.786.239 gneE1.754 gneE1.754.196 gneE1.1320 gneE1.1320.289 gneE11"/>
    </vehicle>
    <vehicle id="gneE8__0.5" depart="12.80" departLane="random">
        <route edges="gneE8 gneE0.1045 gneE0.1045.284 gneE0.1544 gneE0.1544.203 gneE0.2111 gneE0.2111.251 gneE0.2507 gneE0.2507.311 gneE0.2492 gneE0.2492.146 gneE0.2805"/>
    </vehicle>
    <vehicle id="gneE1__0.4" depart="12.80" departLane="random">
        <route edges="gneE1 gneE1.412 gneE1.412.143 gneE1.374 gneE1.374.327 gneE1.786 gneE1.786.239 gneE1.754 gneE1.754.196 gneE1.1320 gneE1.1320.289 gneE1.1821 gneE1.1821.332 gneE3"/>
    </vehicle>
    <vehicle id="gneE29__0.1" depart="12.94" departLane="random">
        <route edges="gneE29 gneE30"/>
    </vehicle>
    <vehicle id="gneE22__0.1" depart="13.25" departLane="random">
        <route edges="gneE22 gneE0.2492 gneE0.2492.146 gneE30"/>
    </vehicle>
    <vehicle id="gneE18__0.2" depart="13.73" departLane="random">
        <route edges="gneE18 gneE19"/>
    </vehicle>
    <vehicle id="gneE14__0.2" depart="14.22" departLane="random">
        <route edges="gneE14 gneE0.1544 gneE0.1544.203 gneE0.2111 gneE0.2111.251 gneE27"/>
    </vehicle>
    <vehicle id="gneE1__0.5" depart="14.67" departLane="random">
        <route edges="gneE1 gneE1.412 gneE1.412.143 gneE1.374 gneE1.374.327 gneE1.786 gneE1.786.239 gneE1.754 gneE1.754.196 gneE1.1320 gneE1.1320.289 gneE1.1821 gneE1.1821.332 gneE3"/>
    </vehicle>
    <vehicle id="gneE4__0.2" depart="14.68" departLane="random">
        <route edges="gneE4 gneE0.541 gneE0.541.343 gneE0.1045 gneE0.1045.284 gneE0.1544 gneE0.1544.203 gneE0.2111 gneE0.2111.251 gneE0.2507 gneE0.2507.311 gneE0.2492 gneE0.2492.146 gneE0.2805"/>
    </vehicle>
    <vehicle id="gneE31__0.4" depart="15.65" departLane="random">
        <route edges="gneE31 gneE1.412 gneE1.412.143 gneE1.374 gneE1.374.327 gneE1.786 gneE1.786.239 gneE1.754 gneE1.754.196 gneE1.1320 gneE1.1320.289 gneE1.1821 gneE1.1821.332 gneE7"/>
    </vehicle>
    <vehicle id="gneE14__0.3" depart="15.70" departLane="random">
        <route edges="gneE14 gneE1.1320 gneE1.1320.289 gneE1.1821 gneE1.1821.332 gneE3"/>
    </vehicle>
    <vehicle id="gneE8__0.6" depart="16.08" departLane="random">
        <route edges="gneE8 gneE0.1045 gneE0.1045.284 gneE0.1544 gneE0.1544.203 gneE0.2111 gneE0.2111.251 gneE27"/>
    </vehicle>
    <vehicle id="gneE14__0.4" depart="17.00" departLane="random">
        <route edges="gneE14 gneE0.1544 gneE0.1544.203 gneE0.2111 gneE0.2111.251 gneE0.2507 gneE0.2507.311 gneE23"/>
    </vehicle>
    <vehicle id="gneE4__0.3" depart="17.01" departLane="random">
        <route edges="gneE4 gneE0.541 gneE0.541.343 gneE0.1045 gneE0.1045.284 gneE0.1544 gneE0.1544.203 gneE0.2111 gneE0.2111.251 gneE0.2507 gneE0.2507.311 gneE23"/>
    </vehicle>
    <vehicle id="gneE0__0.6" depart="17.09" departLane="random">
        <route edges="gneE0 gneE0.541 gneE0.541.343 gneE0.1045 gneE0.1045.284 gneE0.1544 gneE0.1544.203 gneE0.2111 gneE0.2111.251 gneE0.2507 gneE0.2507.311 gneE23"/>
    </vehicle>
    <vehicle id="gneE22__0.2" depart="17.30" departLane="random">
        <route edges="gneE22 gneE1.374 gneE1.374.327 gneE1.786 gneE1.786.239 gneE1.754 gneE1.754.196 gneE1.1320 gneE1.1320.289 gneE1.1821 gneE1.1821.332 gneE3"/>
    </vehicle>
    <vehicle id="gneE10__0.3" depart="17.38" departLane="random">
        <route edges="gneE10 gneE1.1821 gneE1.1821.332 gneE3"/>
    </vehicle>
    <vehicle id="gneE22__0.3" depart="17.51" departLane="random">
        <route edges="gneE22 gneE23"/>
    </vehicle>
    <vehicle id="gneE4__0.4" depart="18.25" departLane="random">
        <route edges="gneE4 gneE5"/>
    </vehicle>
    <vehicle id="gneE14__0.5" depart="18.80" departLane="random">
        <route edges="gneE14 gneE1.1320 gneE1.1320.289 gneE1.1821 gneE1.1821.332 gneE3"/>
    </vehicle>
    <vehicle id="gneE22__0.4" depart="18.93" departLane="random">
        <route edges="gneE22 gneE0.2492 gneE0.2492.146 gneE0.2805"/>
    </vehicle>
    <vehicle id="gneE0__0.7" depart="19.11" departLane="random">
        <route edges="gneE0 gneE0.541 gneE0.541.343 gneE0.1045 gneE0.1045.284 gneE0.1544 gneE0.1544.203 gneE0.2111 gneE0.2111.251 gneE0.2507 gneE0.2507.311 gneE0.2492 gneE0.2492.146 gneE0.2805"/>
    </vehicle>
    <vehicle id="gneE14__0.6" depart="19.30" departLane="random">
        <route edges="gneE14 gneE0.1544 gneE0.1544.203 gneE0.2111 gneE0.2111.251 gneE0.2507 gneE0.2507.311 gneE0.2492 gneE0.2492.146 gneE30"/>
    </vehicle>
    <vehicle id="gneE31__0.5" depart="19.47" departLane="random">
        <route edges="gneE31 gneE32"/>
    </vehicle>
    <vehicle id="gneE1__0.6" depart="19.73" departLane="random">
        <route edges="gneE1 gneE1.412 gneE1.412.143 gneE21"/>
    </vehicle>
    <vehicle id="gneE18__0.3" depart="20.16" departLane="random">
        <route edges="gneE18 gneE1.754 gneE1.754.196 gneE1.1320 gneE1.1320.289 gneE1.1821 gneE1.1821.332 gneE3"/>
    </vehicle>
    <vehicle id="gneE22__0.5" depart="20.17" departLane="random">
        <route edges="gneE22 gneE23"/>
    </vehicle>
    <vehicle id="gneE1__0.7" depart="20.27" departLane="random">
        <route edges="gneE1 gneE1.412 gneE1.412.143 gneE23"/>
    </vehicle>
    <vehicle id="gneE1__0.8" depart="20.39" departLane="random">
        <route edges="gneE1 gneE1.412 gneE1.412.143 gneE1.374 gneE1.374.327 gneE1.786 gneE1.786.239 gneE1.754 gneE1.754.196 gneE13"/>
    </vehicle>
    <vehicle id="gneE31__0.6" depart="20.43" departLane="random">
        <route edges="gneE31 gneE1.412 gneE1.412.143 gneE1.374 gneE1.374.327 gneE1.786 gneE1.786.239 gneE1.754 gneE1.754.196 gneE13"/>
    </vehicle>
    <vehicle id="gneE22__0.6" depart="20.51" departLane="random">
        <route edges="gneE22 gneE23"/>
    </vehicle>
    <vehicle id="gneE22__0.7" depart="20.73" departLane="random">
        <route edges="gneE22 gneE23"/>
    </vehicle>
    <vehicle id="gneE18__0.4" depart="21.49" departLane="random">
        <route edges="gneE18 gneE19"/>
    </vehicle>
    <vehicle id="gneE0__0.8" depart="23.13" departLane="random">
        <route edges="gneE0 gneE0.541 gneE0.541.343 gneE0.1045 gneE0.1045.284 gneE0.1544 gneE0.1544.203 gneE0.2111 gneE0.2111.251 gneE0.2507 gneE0.2507.311 gneE0.2492 gneE0.2492.146 gneE30"/>
    </vehicle>
    <vehicle id="gneE29__0.2" depart="23.59" departLane="random">
        <route edges="gneE29 gneE30"/>
    </vehicle>
    <vehicle id="gneE0__0.9" depart="24.00" departLane="random">
        <route edges="gneE0 gneE0.541 gneE0.541.343 gneE9"/>
    </vehicle>
    <vehicle id="gneE1__0.9" depart="24.44" departLane="random">
        <route edges="gneE1 gneE1.412 gneE1.412.143 gneE1.374 gneE1.374.327 gneE27"/>
    </vehicle>
    <vehicle id="gneE1__0.10" depart="24.51" departLane="random">
        <route edges="gneE1 gneE1.412 gneE1.412.143 gneE1.374 gneE1.374.327 gneE1.786 gneE1.786.239 gneE1.754 gneE1.754.196 gneE1.1320 gneE1.1320.289 gneE11"/>
    </vehicle>
    <vehicle id="gneE24__0.2" depart="24.54" departLane="random">
        <route edges="gneE24 gneE1.786 gneE1.786.239 gneE1.754 gneE1.754.196 gneE13"/>
    </vehicle>
    <vehicle id="gneE16__0.2" depart="25.05" departLane="random">
        <route edges="gneE16 gneE17"/>
    </vehicle>
    <vehicle id="gneE0__0.10" depart="25.38" departLane="random">
        <route edges="gneE0 gneE0.541 gneE0.541.343 gneE9"/>
    </vehicle>
    <vehicle id="gneE14__0.7" depart="25.68" departLane="random">
        <route edges="gneE14 gneE1.1320 gneE1.1320.289 gneE1.1821 gneE1.1821.332 gneE5"/>
    </vehicle>
    <vehicle id="gneE22__0.8" depart="26.43" departLane="random">
        <route edges="gneE22 gneE1.374 gneE1.374.327 gneE1.786 gneE1.786.239 gneE1.754 gneE1.754.196 gneE1.1320 gneE1.1320.289 gneE1.1821 gneE1.1821.332 gneE3"/>
    </vehicle>
    <vehicle id="gneE1__0.11" depart="26.75" departLane="random">
        <route edges="gneE1 gneE1.412 gneE1.412.143 gneE1.374 gneE1.374.327 gneE1.786 gneE1.786.239 gneE1.754 gneE1.754.196 gneE1.1320 gneE1.1320.289 gneE1.1821 gneE1.1821.332 gneE3"/>
    </vehicle>
    <vehicle id="gneE16__0.3" depart="27.19" departLane="random">
        <route edges="gneE16 gneE0.2111 gneE0.2111.251 gneE0.2507 gneE0.2507.311 gneE0.2492 gneE0.2492.146 gneE0.2805"/>
    </vehicle>
    <vehicle id="gneE10__0.4" depart="29.85" departLane="random">
        <route edges="gneE10 gneE0.1045 gneE0.1045.284 gneE0.1544 gneE0.1544.203 gneE0.2111 gneE0.2111.251 gneE0.2507 gneE0.2507.311 gneE23"/>
    </vehicle>
    <vehicle id="gneE16__0.4" depart="29.98" departLane="random">
        <route edges="gneE16 gneE17"/>
    </vehicle>
    <vehicle id="gneE29__0.3" depart="31.05" departLane="random">
        <route edges="gneE29 gneE30"/>
    </vehicle>
    <vehicle id="gneE22__0.9" depart="31.57" departLane="random">
        <route edges="gneE22 gneE0.2492 gneE0.2492.146 gneE30"/>
    </vehicle>
    <vehicle id="gneE0__0.11" depart="31.72" departLane="random">
        <route edges="gneE0 gneE0.541 gneE0.541.343 gneE0.1045 gneE0.1045.284 gneE0.1544 gneE0.1544.203 gneE0.2111 gneE0.2111.251 gneE0.2507 gneE0.2507.311 gneE23"/>
    </vehicle>
    <vehicle id="gneE1__0.12" depart="32.28" departLane="random">
        <route edges="gneE1 gneE1.412 gneE1.412.143 gneE1.374 gneE1.374.327 gneE1.786 gneE1.786.239 gneE1.754 gneE1.754.196 gneE1.1320 gneE1.1320.289 gneE1.1821 gneE1.1821.332 gneE3"/>
    </vehicle>
    <vehicle id="gneE16__0.5" depart="32.69" departLane="random">
        <route edges="gneE16 gneE17"/>
    </vehicle>
    <vehicle id="gneE14__0.8" depart="33.69" departLane="random">
        <route edges="gneE14 gneE0.1544 gneE0.1544.203 gneE0.2111 gneE0.2111.251 gneE0.2507 gneE0.2507.311 gneE0.2492 gneE0.2492.146 gneE0.2805"/>
    </vehicle>
    <vehicle id="gneE6__0.1" depart="33.70" departLane="random">
        <route edges="gneE6 gneE3"/>
    </vehicle>
    <vehicle id="gneE18__0.5" depart="33.72" departLane="random">
        <route edges="gneE18 gneE0.2111 gneE0.2111.251 gneE0.2507 gneE0.2507.311 gneE0.2492 gneE0.2492.146 gneE32"/>
    </vehicle>
    <vehicle id="gneE1__0.13" depart="34.18" departLane="random">
        <route edges="gneE1 gneE1.412 gneE1.412.143 gneE1.374 gneE1.374.327 gneE1.786 gneE1.786.239 gneE1.754 gneE1.754.196 gneE1.1320 gneE1.1320.289 gneE1.1821 gneE1.1821.332 gneE3"/>
    </vehicle>
    <vehicle id="gneE18__0.6" depart="35.36" departLane="random">
        <route edges="gneE18 gneE1.754 gneE1.754.196 gneE1.1320 gneE1.1320.289 gneE1.1821 gneE1.1821.332 gneE3"/>
    </vehicle>
    <vehicle id="gneE1__0.14" depart="35.44" departLane="random">
        <route edges="gneE1 gneE30"/>
    </vehicle>
    <vehicle id="gneE24__0.3" depart="35.61" departLane="random">
        <route edges="gneE24 gneE0.2507 gneE0.2507.311 gneE0.2492 gneE0.2492.146 gneE0.2805"/>
    </vehicle>
    <vehicle id="gneE0__0.12" depart="35.91" departLane="random">
        <route edges="gneE0 gneE0.541 gneE0.541.343 gneE0.1045 gneE0.1045.284 gneE0.1544 gneE0.1544.203 gneE0.2111 gneE0.2111.251 gneE27"/>
    </vehicle>
    <vehicle id="gneE14__0.9" depart="35.96" departLane="random">
        <route edges="gneE14 gneE0.1544 gneE0.1544.203 gneE0.2111 gneE0.2111.251 gneE0.2507 gneE0.2507.311 gneE0.2492 gneE0.2492.146 gneE0.2805"/>
    </vehicle>
    <vehicle id="gneE22__0.10" depart="36.04" departLane="random">
        <route edges="gneE22 gneE0.2492 gneE0.2492.146 gneE0.2805"/>
    </vehicle>
    <vehicle id="gneE0__0.13" depart="37.11" departLane="random">
        <route edges="gneE0 gneE0.541 gneE0.541.343 gneE9"/>
    </vehicle>
    <vehicle id="gneE0__0.14" depart="37.41" departLane="random">
        <route edges="gneE0 gneE0.541 gneE0.541.343 gneE0.1045 gneE0.1045.284 gneE0.1544 gneE0.1544.203 gneE0.2111 gneE0.2111.251 gneE25"/>
    </vehicle>
    <vehicle id="gneE29__0.4" depart="38.14" departLane="random">
        <route edges="gneE29 gneE30"/>
    </vehicle>
    <vehicle id="gneE24__0.4" depart="38.15" departLane="random">
        <route edges="gneE24 gneE25"/>
    </vehicle>
    <vehicle id="gneE4__0.5" depart="39.18" departLane="random">
        <route edges="gneE4 gneE0.541 gneE0.541.343 gneE0.1045 gneE0.1045.284 gneE0.1544 gneE0.1544.203 gneE19"/>
    </vehicle>
    <vehicle id="gneE4__0.6" depart="39.70" departLane="random">
        <route edges="gneE4 gneE0.541 gneE0.541.343 gneE0.1045 gneE0.1045.284 gneE0.1544 gneE0.1544.203 gneE0.2111 gneE0.2111.251 gneE27"/>
    </vehicle>
    <vehicle id="gneE24__0.5" depart="40.08" departLane="random">
        <route edges="gneE24 gneE1.786 gneE1.786.239 gneE1.754 gneE1.754.196 gneE1.1320 gneE1.1320.289 gneE1.1821 gneE1.1821.332 gneE3"/>
    </vehicle>
    <vehicle id="gneE22__0.11" depart="40.11" departLane="random">
        <route edges="gneE22 gneE0.2492 gneE0.2492.146 gneE0.2805"/>
    </vehicle>
    <vehicle id="gneE6__0.2" depart="40.22" departLane="random">
        <route edges="gneE6 gneE7"/>
    </vehicle>
    <vehicle id="gneE4__0.7" depart="40.48" departLane="random">
        <route edges="gneE4 gneE0.541 gneE0.541.343 gneE9"/>
    </vehicle>
    <vehicle id="gneE0__0.15" depart="43.02" departLane="random">
        <route edges="gneE0 gneE0.541 gneE0.541.343 gneE0.1045 gneE0.1045.284 gneE0.1544 gneE0.1544.203 gneE0.2111 gneE0.2111.251 gneE0.2507 gneE0.2507.311 gneE0.2492 gneE0.2492.146 gneE32"/>
    </vehicle>
    <vehicle id="gneE24__0.6" depart="44.51" departLane="random">
        <route edges="gneE24 gneE25"/>
    </vehicle>
    <vehicle id="gneE0__0.16" depart="46.02" departLane="random">
        <route edges="gneE0 gneE0.541 gneE0.541.343 gneE0.1045 gneE0.1045.284 gneE0.1544 gneE0.1544.203 gneE0.2111 gneE0.2111.251 gneE25"/>
    </vehicle>
    <vehicle id="gneE1__0.15" depart="46.53" departLane="random">
        <route edges="gneE1 gneE1.412 gneE1.412.143 gneE1.374 gneE1.374.327 gneE1.786 gneE1.786.239 gneE1.754 gneE1.754.196 gneE13"/>
    </vehicle>
    <vehicle id="gneE4__0.8" depart="47.34" departLane="random">
        <route edges="gneE4 gneE3"/>
    </vehicle>
    <vehicle id="gneE20__0.5" depart="47.93" departLane="random">
        <route edges="gneE20 gneE1.374 gneE1.374.327 gneE25"/>
    </vehicle>
    <vehicle id="gneE1__0.16" depart="48.14" departLane="random">
        <route edges="gneE1 gneE1.412 gneE1.412.143 gneE21"/>
    </vehicle>
    <vehicle id="gneE10__0.5" depart="49.22" departLane="random">
        <route edges="gneE10 gneE11"/>
    </vehicle>
    <vehicle id="gneE10__0.6" depart="49.50" departLane="random">
        <route edges="gneE10 gneE11"/>
    </vehicle>
    <vehicle id="gneE22__0.12" depart="50.01" departLane="random">
        <route edges="gneE22 gneE23"/>
    </vehicle>
    <vehicle id="gneE24__0.7" depart="50.09" departLane="random">
        <route edges="gneE24 gneE1.786 gneE1.786.239 gneE1.754 gneE1.754.196 gneE1.1320 gneE1.1320.289 gneE1.1821 gneE1.1821.332 gneE3"/>
    </vehicle>
    <vehicle id="gneE10__0.7" depart="50.22" departLane="random">
        <route edges="gneE10 gneE0.1045 gneE0.1045.284 gneE0.1544 gneE0.1544.203 gneE0.2111 gneE0.2111.251 gneE0.2507 gneE0.2507.311 gneE23"/>
    </vehicle>
    <vehicle id="gneE31__0.7" depart="50.71" departLane="random">
        <route edges="gneE31 gneE1.412 gneE1.412.143 gneE1.374 gneE1.374.327 gneE1.786 gneE1.786.239 gneE1.754 gneE1.754.196 gneE13"/>
    </vehicle>
    <vehicle id="gneE8__0.7" depart="50.99" departLane="random">
        <route edges="gneE8 gneE1.1821 gneE1.1821.332 gneE3"/>
    </vehicle>
    <vehicle id="gneE0__0.17" depart="51.75" departLane="random">
        <route edges="gneE0 gneE0.541 gneE0.541.343 gneE0.1045 gneE0.1045.284 gneE0.1544 gneE0.1544.203 gneE0.2111 gneE0.2111.251 gneE27"/>
    </vehicle>
    <vehicle id="gneE0__0.18" depart="52.97" departLane="random">
        <route edges="gneE0 gneE0.541 gneE0.541.343 gneE0.1045 gneE0.1045.284 gneE0.1544 gneE0.1544.203 gneE0.2111 gneE0.2111.251 gneE0.2507 gneE0.2507.311 gneE0.2492 gneE0.2492.146 gneE0.2805"/>
    </vehicle>
    <vehicle id="gneE14__0.10" depart="52.98" departLane="random">
        <route edges="gneE14 gneE0.1544 gneE0.1544.203 gneE0.2111 gneE0.2111.251 gneE27"/>
    </vehicle>
    <vehicle id="gneE12__0.2" depart="53.57" departLane="random">
        <route edges="gneE12 gneE13"/>
    </vehicle>
    <vehicle id="gneE18__0.7" depart="53.66" departLane="random">
        <route edges="gneE18 gneE1.754 gneE1.754.196 gneE13"/>
    </vehicle>
    <vehicle id="gneE26__0.1" depart="54.41" departLane="random">
        <route edges="gneE26 gneE1.786 gneE1.786.239 gneE1.754 gneE1.754.196 gneE1.1320 gneE1.1320.289 gneE1.1821 gneE1.1821.332 gneE3"/>
    </vehicle>
    <vehicle id="gneE0__0.19" depart="54.94" departLane="random">
        <route edges="gneE0 gneE0.541 gneE0.541.343 gneE0.1045 gneE0.1045.284 gneE0.1544 gneE0.1544.203 gneE0.2111 gneE0.2111.251 gneE27"/>
    </vehicle>
    <vehicle id="gneE16__0.6" depart="55.19" departLane="random">
        <route edges="gneE16 gneE1.754 gneE1.754.196 gneE1.1320 gneE1.1320.289 gneE1.1821 gneE1.1821.332 gneE3"/>
    </vehicle>
    <vehicle id="gneE0__0.20" depart="55.99" departLane="random">
        <route edges="gneE0 gneE0.541 gneE0.541.343 gneE9"/>
    </vehicle>
    <vehicle id="gneE20__0.6" depart="56.11" departLane="random">
        <route edges="gneE20 gneE0.2492 gneE0.2492.146 gneE0.2805"/>
    </vehicle>
    <vehicle id="gneE16__0.7" depart="56.24" departLane="random">
        <route edges="gneE16 gneE0.2111 gneE0.2111.251 gneE27"/>
    </vehicle>
    <vehicle id="gneE20__0.7" depart="56.86" departLane="random">
        <route edges="gneE20 gneE21"/>
    </vehicle>
    <vehicle id="gneE18__0.8" depart="56.89" departLane="random">
        <route edges="gneE18 gneE0.2111 gneE0.2111.251 gneE0.2507 gneE0.2507.311 gneE0.2492 gneE0.2492.146 gneE0.2805"/>
    </vehicle>
    <vehicle id="gneE24__0.8" depart="58.30" departLane="random">
        <route edges="gneE24 gneE25"/>
    </vehicle>
    <vehicle id="gneE29__0.5" depart="58.31" departLane="random">
        <route edges="gneE29 gneE1.412 gneE1.412.143 gneE1.374 gneE1.374.327 gneE25"/>
    </vehicle>
    <vehicle id="gneE8__0.8" depart="58.31" departLane="random">
        <route edges="gneE8 gneE9"/>
    </vehicle>
    <vehicle id="gneE6__0.3" depart="59.12" departLane="random">
        <route edges="gneE6 gneE3"/>
    </vehicle>
    <vehicle id="gneE8__0.9" depart="59.60" departLane="random">
        <route edges="gneE8 gneE9"/>
    </vehicle>
    <vehicle id="gneE26__0.2" depart="59.61" departLane="random">
        <route edges="gneE26 gneE1.786 gneE1.786.239 gneE1.754 gneE1.754.196 gneE13"/>
    </vehicle>
    <vehicle id="gneE18__0.9" depart="59.67" departLane="random">
        <route edges="gneE18 gneE0.2111 gneE0.2111.251 gneE0.2507 gneE0.2507.311 gneE0.2492 gneE0.2492.146 gneE0.2805"/>
    </vehicle>
    <vehicle id="gneE6__0.4" depart="59.99" departLane="random">
        <route edges="gneE6 gneE7"/>
    </vehicle>
    <vehicle id="gneE29__0.6" depart="60.00" departLane="random">
        <route edges="gneE29 gneE30"/>
    </vehicle>
    <vehicle id="gneE1__0.17" depart="60.44" departLane="random">
        <route edges="gneE1 gneE1.412 gneE1.412.143 gneE23"/>
    </vehicle>
    <vehicle id="gneE12__0.3" depart="60.53" departLane="random">
        <route edges="gneE12 gneE0.1544 gneE0.1544.203 gneE0.2111 gneE0.2111.251 gneE0.2507 gneE0.2507.311 gneE0.2492 gneE0.2492.146 gneE0.2805"/>
    </vehicle>
    <vehicle id="gneE16__0.8" depart="60.83" departLane="random">
        <route edges="gneE16 gneE17"/>
    </vehicle>
    <vehicle id="gneE0__0.21" depart="60.87" departLane="random">
        <route edges="gneE0 gneE0.541 gneE0.541.343 gneE0.1045 gneE0.1045.284 gneE0.1544 gneE0.1544.203 gneE0.2111 gneE0.2111.251 gneE0.2507 gneE0.2507.311 gneE23"/>
    </vehicle>
    <vehicle id="gneE10__0.8" depart="62.07" departLane="random">
        <route edges="gneE10 gneE11"/>
    </vehicle>
    <vehicle id="gneE31__0.8" depart="62.29" departLane="random">
        <route edges="gneE31 gneE0.2805"/>
    </vehicle>
    <vehicle id="gneE26__0.3" depart="62.38" departLane="random">
        <route edges="gneE26 gneE1.786 gneE1.786.239 gneE1.754 gneE1.754.196 gneE1.1320 gneE1.1320.289 gneE1.1821 gneE1.1821.332 gneE3"/>
    </vehicle>
    <vehicle id="gneE14__0.11" depart="62.43" departLane="random">
        <route edges="gneE14 gneE15"/>
    </vehicle>
    <vehicle id="gneE20__0.8" depart="63.75" departLane="random">
        <route edges="gneE20 gneE1.374 gneE1.374.327 gneE1.786 gneE1.786.239 gneE1.754 gneE1.754.196 gneE1.1320 gneE1.1320.289 gneE1.1821 gneE1.1821.332 gneE3"/>
    </vehicle>
    <vehicle id="gneE8__0.10" depart="64.14" departLane="random">
        <route edges="gneE8 gneE0.1045 gneE0.1045.284 gneE0.1544 gneE0.1544.203 gneE0.2111 gneE0.2111.251 gneE25"/>