<?xml version="1.0" encoding="UTF-8"?>

<!-- generated on Tue 05 Jan 2021 04:49:07 PM CST by Eclipse SUMO netedit Version 1.8.0
<configuration xmlns:xsi="http://www.w3.org/2001/XMLSchema-instance" xsi:noNamespaceSchemaLocation="http://sumo.dlr.de/xsd/netconvertConfiguration.xsd">

    <input>
        <sumo-net-file value="rl_wj.net.xml"/>
    </input>

    <output>
        <output-file value="rl_wj.net.xml"/>
    </output>

    <processing>
        <geometry.min-radius.fix.railways value="false"/>
        <geometry.max-grade.fix value="false"/>
        <offset.disable-normalization value="true"/>
        <lefthand value="false"/>
    </processing>

    <junctions>
        <no-turnarounds value="true"/>
        <junctions.corner-detail value="5"/>
        <junctions.limit-turn-speed value="5.5"/>
        <rectangular-lane-cut value="false"/>
    </junctions>

    <pedestrian>
        <walkingareas value="false"/>
    </pedestrian>

    <report>
        <aggregate-warnings value="5"/>
    </report>

</configuration>
-->

<net version="1.6" junctionCornerDetail="5" limitTurnSpeed="5.50" xmlns:xsi="http://www.w3.org/2001/XMLSchema-instance" xsi:noNamespaceSchemaLocation="http://sumo.dlr.de/xsd/net_file.xsd">

    <location netOffset="-453088.32,-4425466.14" convBoundary="1347.29,488.16,2673.55,2043.64" origBoundary="116.268931,39.793594,117.125669,40.145385" projParameter="+proj=utm +zone=50 +ellps=WGS84 +datum=WGS84 +units=m +no_defs"/>

    <type id="highway.bridleway" priority="1" numLanes="1" speed="2.78" allow="pedestrian" oneway="1" width="2.00"/>
    <type id="highway.bus_guideway" priority="1" numLanes="1" speed="27.78" allow="bus" oneway="1"/>
    <type id="highway.cycleway" priority="1" numLanes="1" speed="8.33" allow="bicycle" oneway="1" width="1.00"/>
    <type id="highway.footway" priority="1" numLanes="1" speed="2.78" allow="pedestrian" oneway="1" width="2.00"/>
    <type id="highway.ford" priority="1" numLanes="1" speed="2.78" allow="army" oneway="1"/>
    <type id="highway.living_street" priority="2" numLanes="1" speed="2.78" disallow="tram rail_urban rail rail_electric rail_fast ship" oneway="1"/>
    <type id="highway.motorway" priority="14" numLanes="2" speed="39.44" allow="private emergency authority army vip passenger hov taxi bus coach delivery truck trailer motorcycle evehicle custom1 custom2" oneway="1"/>
    <type id="highway.motorway_link" priority="9" numLanes="1" speed="22.22" allow="private emergency authority army vip passenger hov taxi bus coach delivery truck trailer motorcycle evehicle custom1 custom2" oneway="1"/>
    <type id="highway.path" priority="1" numLanes="1" speed="2.78" allow="pedestrian bicycle" oneway="1" width="2.00"/>
    <type id="highway.pedestrian" priority="1" numLanes="1" speed="2.78" allow="pedestrian" oneway="1" width="2.00"/>
    <type id="highway.primary" priority="12" numLanes="2" speed="27.78" disallow="tram rail_urban rail rail_electric rail_fast ship" oneway="1"/>
    <type id="highway.primary_link" priority="7" numLanes="1" speed="22.22" disallow="tram rail_urban rail rail_electric rail_fast ship" oneway="1"/>
    <type id="highway.raceway" priority="15" numLanes="2" speed="83.33" allow="vip" oneway="1"/>
    <type id="highway.residential" priority="3" numLanes="1" speed="13.89" disallow="tram rail_urban rail rail_electric rail_fast ship" oneway="1"/>
    <type id="highway.secondary" priority="11" numLanes="1" speed="27.78" disallow="tram rail_urban rail rail_electric rail_fast ship" oneway="1"/>
    <type id="highway.secondary_link" priority="6" numLanes="1" speed="22.22" disallow="tram rail_urban rail rail_electric rail_fast ship" oneway="1"/>
    <type id="highway.service" priority="1" numLanes="1" speed="5.56" allow="pedestrian delivery bicycle" oneway="1"/>
    <type id="highway.stairs" priority="1" numLanes="1" speed="1.39" allow="pedestrian" oneway="1" width="2.00"/>
    <type id="highway.step" priority="1" numLanes="1" speed="1.39" allow="pedestrian" oneway="1" width="2.00"/>
    <type id="highway.steps" priority="1" numLanes="1" speed="1.39" allow="pedestrian" oneway="1" width="2.00"/>
    <type id="highway.tertiary" priority="10" numLanes="1" speed="22.22" disallow="tram rail_urban rail rail_electric rail_fast ship" oneway="1"/>
    <type id="highway.tertiary_link" priority="5" numLanes="1" speed="22.22" disallow="tram rail_urban rail rail_electric rail_fast ship" oneway="1"/>
    <type id="highway.track" priority="1" numLanes="1" speed="5.56" disallow="tram rail_urban rail rail_electric rail_fast ship" oneway="1"/>
    <type id="highway.trunk" priority="13" numLanes="2" speed="27.78" disallow="pedestrian bicycle tram rail_urban rail rail_electric rail_fast ship" oneway="1"/>
    <type id="highway.trunk_link" priority="8" numLanes="1" speed="22.22" disallow="pedestrian bicycle tram rail_urban rail rail_electric rail_fast ship" oneway="1"/>
    <type id="highway.unclassified" priority="4" numLanes="1" speed="13.89" disallow="tram rail_urban rail rail_electric rail_fast ship" oneway="1"/>
    <type id="highway.unsurfaced" priority="1" numLanes="1" speed="8.33" disallow="tram rail_urban rail rail_electric rail_fast ship" oneway="1"/>
    <type id="railway.highspeed" priority="21" numLanes="1" speed="69.44" allow="rail_fast" oneway="1"/>
    <type id="railway.light_rail" priority="19" numLanes="1" speed="27.78" allow="rail_urban" oneway="1"/>
    <type id="railway.preserved" priority="16" numLanes="1" speed="27.78" allow="rail" oneway="1"/>
    <type id="railway.rail" priority="20" numLanes="1" speed="44.44" allow="rail" oneway="1"/>
    <type id="railway.subway" priority="18" numLanes="1" speed="27.78" allow="rail_urban" oneway="1"/>
    <type id="railway.tram" priority="17" numLanes="1" speed="13.89" allow="tram" oneway="1"/>

    <edge id=":1239554964_0" function="internal">
        <lane id=":1239554964_0_0" index="0" disallow="tram rail_urban rail rail_electric rail_fast ship" speed="27.78" length="8.20" shape="1606.95,1072.07 1608.60,1070.33 1609.45,1068.87 1610.30,1067.41 1611.94,1065.65"/>
        <lane id=":1239554964_0_1" index="1" disallow="tram rail_urban rail rail_electric rail_fast ship" speed="27.78" length="8.20" shape="1606.95,1072.07 1608.93,1070.70 1610.50,1070.08 1612.07,1069.45 1614.04,1068.07"/>
        <lane id=":1239554964_0_2" index="2" disallow="tram rail_urban rail rail_electric rail_fast ship" speed="27.78" length="8.20" shape="1609.03,1074.50 1611.02,1073.13 1612.59,1072.50 1614.16,1071.87 1616.14,1070.48"/>
        <lane id=":1239554964_0_3" index="3" disallow="tram rail_urban rail rail_electric rail_fast ship" speed="27.78" length="8.20" shape="1611.11,1076.93 1613.10,1075.56 1614.68,1074.92 1616.26,1074.29 1618.24,1072.90"/>
    </edge>
    <edge id=":1736610777_0" function="internal">
        <lane id=":1736610777_0_0" index="0" disallow="tram rail_urban rail rail_electric rail_fast ship" speed="27.78" length="7.88" shape="1492.39,644.49 1493.66,646.35 1494.25,647.83 1494.88,649.28 1496.28,651.02"/>
        <lane id=":1736610777_0_1" index="1" disallow="tram rail_urban rail rail_electric rail_fast ship" speed="27.78" length="7.88" shape="1489.96,646.57 1491.28,648.49 1491.90,650.01 1492.58,651.50 1494.03,653.29"/>
        <lane id=":1736610777_0_2" index="2" disallow="tram rail_urban rail rail_electric rail_fast ship" speed="27.78" length="7.88" shape="1487.52,648.64 1489.24,650.26 1490.69,651.06 1492.18,651.81 1494.03,653.29"/>
    </edge>
    <edge id=":1828299243_0" function="internal">
        <lane id=":1828299243_0_0" index="0" disallow="tram rail_urban rail rail_electric rail_fast ship" speed="17.13" length="18.62" shape="2317.32,1639.20 2316.06,1634.15 2313.74,1631.24 2310.47,1628.75 2306.40,1624.92"/>
    </edge>
    <edge id=":1828299243_1" function="internal">
        <lane id=":1828299243_1_0" index="0" disallow="tram rail_urban rail rail_electric rail_fast ship" speed="17.99" length="20.55" shape="2320.50,1638.87 2319.17,1633.25 2316.73,1629.95 2313.25,1627.09 2308.82,1622.82"/>
    </edge>
    <edge id=":1828299243_2" function="internal">
        <lane id=":1828299243_2_0" index="0" disallow="tram rail_urban rail rail_electric rail_fast ship" speed="22.22" length="28.66" shape="2323.69,1638.55 2321.44,1630.78 2317.65,1626.20 2313.55,1621.67 2310.40,1614.05"/>
        <lane id=":1828299243_2_1" index="1" disallow="tram rail_urban rail rail_electric rail_fast ship" speed="22.22" length="28.66" shape="2326.87,1638.22 2324.60,1630.25 2320.77,1625.51 2316.64,1620.82 2313.45,1612.99"/>
        <lane id=":1828299243_2_2" index="2" disallow="tram rail_urban rail rail_electric rail_fast ship" speed="22.22" length="28.66" shape="2326.87,1638.22 2325.07,1630.13 2322.29,1624.98 2319.20,1619.89 2316.49,1611.93"/>
    </edge>
    <edge id=":1828299243_5" function="internal">
        <lane id=":1828299243_5_0" index="0" disallow="tram rail_urban rail rail_electric rail_fast ship" speed="22.22" length="30.18" shape="2337.36,1607.41 2336.73,1614.10 2337.24,1620.34 2338.36,1627.49 2339.60,1636.93"/>
        <lane id=":1828299243_5_1" index="1" disallow="tram rail_urban rail rail_electric rail_fast ship" speed="22.22" length="30.18" shape="2334.22,1606.83 2333.57,1613.60 2334.05,1620.04 2335.17,1627.48 2336.42,1637.25"/>
    </edge>
    <edge id=":1828299243_7" function="internal">
        <lane id=":1828299243_7_0" index="0" disallow="tram rail_urban rail rail_electric rail_fast ship" speed="22.22" length="30.15" shape="2330.32,1607.14 2333.32,1615.60 2334.80,1621.71 2335.57,1628.07 2336.42,1637.25"/>
        <lane id=":1828299243_7_1" index="1" disallow="tram rail_urban rail rail_electric rail_fast ship" speed="22.22" length="30.15" shape="2327.29,1608.19 2330.28,1616.58 2331.71,1622.54 2332.42,1628.66 2333.24,1637.58"/>
        <lane id=":1828299243_7_2" index="2" disallow="tram rail_urban rail rail_electric rail_fast ship" speed="22.22" length="30.15" shape="2324.27,1609.23 2327.18,1617.43 2328.57,1623.23 2329.26,1629.20 2330.05,1637.90"/>
    </edge>
    <edge id=":1828299251_0" function="internal">
        <lane id=":1828299251_0_0" index="0" disallow="tram rail_urban rail rail_electric rail_fast ship" speed="8.63" length="8.62" shape="2225.09,1411.10 2227.04,1413.24 2228.84,1414.75 2230.49,1415.62 2231.98,1415.86"/>
    </edge>
    <edge id=":1828299251_1" function="internal">
        <lane id=":1828299251_1_0" index="0" disallow="tram rail_urban rail rail_electric rail_fast ship" speed="9.94" length="11.60" shape="2222.62,1413.13 2225.13,1415.82 2227.55,1417.70 2229.90,1418.78 2232.16,1419.05"/>
    </edge>
    <edge id=":1828299251_2" function="internal">
        <lane id=":1828299251_2_0" index="0" disallow="tram rail_urban rail rail_electric rail_fast ship" speed="13.89" length="10.92" shape="2221.15,1417.95 2224.10,1416.54 2226.31,1416.02 2228.64,1415.94 2231.98,1415.86"/>
        <lane id=":1828299251_2_1" index="1" disallow="tram rail_urban rail rail_electric rail_fast ship" speed="13.89" length="10.92" shape="2221.92,1421.19 2224.72,1419.82 2226.80,1419.28 2229.00,1419.15 2232.16,1419.05"/>
    </edge>
    <edge id=":1828299264_0" function="internal">
        <lane id=":1828299264_0_0" index="0" disallow="tram rail_urban rail rail_electric rail_fast ship" speed="10.03" length="10.12" shape="2190.33,1517.05 2186.70,1516.65 2183.83,1516.59 2181.73,1516.87 2180.39,1517.50"/>
    </edge>
    <edge id=":1828299264_1" function="internal">
        <lane id=":1828299264_1_0" index="0" disallow="tram rail_urban rail rail_electric rail_fast ship" speed="11.22" length="12.78" shape="2190.78,1513.89 2186.47,1513.45 2182.95,1513.50 2180.24,1514.03 2178.33,1515.05"/>
    </edge>
    <edge id=":1828299264_2" function="internal">
        <lane id=":1828299264_2_0" index="0" disallow="tram rail_urban rail rail_electric rail_fast ship" speed="18.05" length="12.02" shape="2189.54,1509.67 2180.39,1517.50"/>
        <lane id=":1828299264_2_1" index="1" disallow="tram rail_urban rail rail_electric rail_fast ship" speed="18.05" length="12.02" shape="2187.45,1507.25 2178.33,1515.05"/>
    </edge>
    <edge id=":1828299288_0" function="internal">
        <lane id=":1828299288_0_0" index="0" disallow="tram rail_urban rail rail_electric rail_fast ship" speed="8.13" length="7.68" shape="2240.81,1417.65 2242.29,1417.70 2243.92,1417.22 2245.70,1416.22 2247.63,1414.69"/>
    </edge>
    <edge id=":1828299288_1" function="internal">
        <lane id=":1828299288_1_0" index="0" disallow="tram rail_urban rail rail_electric rail_fast ship" speed="8.87" length="9.23" shape="2240.81,1417.65 2243.86,1418.17 2246.37,1418.25 2248.34,1417.89 2249.76,1417.09"/>
    </edge>
    <edge id=":1828299288_2" function="internal">
        <lane id=":1828299288_2_0" index="0" disallow="tram rail_urban rail rail_electric rail_fast ship" speed="13.89" length="9.83" shape="2240.81,1417.65 2243.78,1418.42 2245.74,1419.23 2247.55,1420.36 2250.11,1422.11"/>
        <lane id=":1828299288_2_1" index="1" disallow="tram rail_urban rail rail_electric rail_fast ship" speed="13.89" length="9.83" shape="2240.12,1420.77 2242.75,1421.46 2244.47,1422.20 2246.08,1423.22 2248.34,1424.77"/>
    </edge>
    <edge id=":1828299295_0" function="internal">
        <lane id=":1828299295_0_0" index="0" disallow="tram rail_urban rail rail_electric rail_fast ship" speed="9.60" length="7.87" shape="2202.21,1442.28 2201.96,1440.07 2201.21,1438.69 2199.97,1437.50 2198.27,1435.87"/>
    </edge>
    <edge id=":1828299295_1" function="internal">
        <lane id=":1828299295_1_0" index="0" disallow="tram rail_urban rail rail_electric rail_fast ship" speed="10.32" length="9.16" shape="2202.21,1442.28 2202.38,1439.53 2202.53,1437.53 2202.11,1435.75 2200.59,1433.67"/>
    </edge>
    <edge id=":1828299295_2" function="internal">
        <lane id=":1828299295_2_0" index="0" disallow="tram rail_urban rail rail_electric rail_fast ship" speed="13.89" length="9.20" shape="2202.21,1442.28 2202.36,1439.39 2202.84,1437.45 2203.69,1435.59 2204.95,1432.94"/>
        <lane id=":1828299295_2_1" index="1" disallow="tram rail_urban rail rail_electric rail_fast ship" speed="13.89" length="9.20" shape="2205.41,1442.27 2205.55,1439.79 2206.00,1438.12 2206.77,1436.52 2207.88,1434.24"/>
    </edge>
    <edge id=":1828299311_0" function="internal">
        <lane id=":1828299311_0_0" index="0" disallow="tram rail_urban rail rail_electric rail_fast ship" speed="11.10" length="10.85" shape="2192.06,1371.18 2194.34,1373.14 2196.43,1373.69 2198.85,1373.60 2202.11,1373.63"/>
    </edge>
    <edge id=":1828299311_1" function="internal">
        <lane id=":1828299311_1_0" index="0" disallow="tram rail_urban rail rail_electric rail_fast ship" speed="11.54" length="11.77" shape="2192.06,1371.18 2194.36,1373.78 2196.23,1375.40 2198.46,1376.32 2201.83,1376.82"/>
    </edge>
    <edge id=":1828299311_2" function="internal">
        <lane id=":1828299311_2_0" index="0" disallow="tram rail_urban rail rail_electric rail_fast ship" speed="18.05" length="12.14" shape="2192.06,1371.18 2199.88,1380.53"/>
        <lane id=":1828299311_2_1" index="1" disallow="tram rail_urban rail rail_electric rail_fast ship" speed="18.05" length="12.14" shape="2189.65,1373.28 2197.41,1382.56"/>
    </edge>
    <edge id=":1828299321_0" function="internal">
        <lane id=":1828299321_0_0" index="0" disallow="tram rail_urban rail rail_electric rail_fast ship" speed="19.53" length="11.74" shape="2303.05,1492.68 2302.73,1495.97 2302.38,1498.27 2302.45,1500.50 2303.39,1503.57"/>
        <lane id=":1828299321_0_1" index="1" disallow="tram rail_urban rail rail_electric rail_fast ship" speed="20.67" length="11.74" shape="2299.85,1492.56 2299.52,1496.25 2299.19,1498.83 2299.34,1501.33 2300.43,1504.77"/>
    </edge>
    <edge id=":1828299321_2" function="internal">
        <lane id=":1828299321_2_0" index="0" disallow="tram rail_urban rail rail_electric rail_fast ship" speed="18.05" length="11.73" shape="2296.01,1493.93 2298.53,1496.57 2300.35,1498.35 2301.84,1500.33 2303.39,1503.57"/>
        <lane id=":1828299321_2_1" index="1" disallow="tram rail_urban rail rail_electric rail_fast ship" speed="18.05" length="11.73" shape="2293.60,1496.04 2295.92,1498.44 2297.61,1500.04 2299.00,1501.82 2300.43,1504.77"/>
    </edge>
    <edge id=":1828299326_0" function="internal">
        <lane id=":1828299326_0_0" index="0" disallow="tram rail_urban rail rail_electric rail_fast ship" speed="10.36" length="10.25" shape="2308.16,1404.08 2307.35,1405.29 2306.73,1407.34 2306.30,1410.23 2306.05,1413.95"/>
    </edge>
    <edge id=":1828299326_1" function="internal">
        <lane id=":1828299326_1_0" index="0" disallow="tram rail_urban rail rail_electric rail_fast ship" speed="11.53" length="12.81" shape="2306.04,1401.68 2304.78,1403.37 2303.83,1405.96 2303.19,1409.45 2302.85,1413.83"/>
    </edge>
    <edge id=":1828299326_2" function="internal">
        <lane id=":1828299326_2_0" index="0" disallow="tram rail_urban rail rail_electric rail_fast ship" speed="18.05" length="12.31" shape="2306.04,1401.68 2303.64,1404.46 2302.54,1406.85 2301.43,1409.22 2298.97,1411.94"/>
        <lane id=":1828299326_2_1" index="1" disallow="tram rail_urban rail rail_electric rail_fast ship" speed="18.05" length="12.31" shape="2306.04,1401.68 2296.91,1409.50"/>
    </edge>
    <edge id=":1828299335_0" function="internal">
        <lane id=":1828299335_0_0" index="0" disallow="tram rail_urban rail rail_electric rail_fast ship" speed="8.86" length="10.17" shape="2259.44,1529.71 2258.41,1528.39 2256.57,1527.28 2253.90,1526.40 2250.43,1525.73"/>
    </edge>
    <edge id=":1828299335_1" function="internal">
        <lane id=":1828299335_1_0" index="0" disallow="tram rail_urban rail rail_electric rail_fast ship" speed="10.10" length="13.40" shape="2262.38,1528.43 2260.92,1526.38 2258.52,1524.72 2255.18,1523.44 2250.88,1522.56"/>
    </edge>
    <edge id=":1828299335_2" function="internal">
        <lane id=":1828299335_2_0" index="0" disallow="tram rail_urban rail rail_electric rail_fast ship" speed="18.05" length="13.24" shape="2262.38,1528.43 2260.36,1525.12 2258.25,1523.34 2255.99,1521.64 2253.53,1518.56"/>
        <lane id=":1828299335_2_1" index="1" disallow="tram rail_urban rail rail_electric rail_fast ship" speed="18.05" length="13.24" shape="2262.38,1528.43 2260.80,1524.89 2259.61,1522.51 2258.28,1520.21 2256.26,1516.90"/>
    </edge>
    <edge id=":1828299343_0" function="internal">
        <lane id=":1828299343_0_0" index="0" disallow="tram rail_urban rail rail_electric rail_fast ship" speed="10.57" length="8.49" shape="2108.61,1566.77 2106.38,1566.83 2104.78,1566.88 2103.34,1567.31 2101.62,1568.56"/>
        <lane id=":1828299343_0_1" index="1" disallow="tram rail_urban rail rail_electric rail_fast ship" speed="11.90" length="8.49" shape="2108.35,1563.58 2105.51,1563.71 2103.49,1563.86 2101.69,1564.52 2099.49,1566.17"/>
    </edge>
    <edge id=":1828299343_2" function="internal">
        <lane id=":1828299343_2_0" index="0" disallow="tram rail_urban rail rail_electric rail_fast ship" speed="22.22" length="14.19" shape="2110.26,1556.97 2099.49,1566.17"/>
        <lane id=":1828299343_2_1" index="1" disallow="tram rail_urban rail rail_electric rail_fast ship" speed="22.22" length="14.19" shape="2108.18,1554.54 2097.37,1563.77"/>
    </edge>
    <edge id=":1828299343_4" function="internal">
        <lane id=":1828299343_4_0" index="0" disallow="tram rail_urban rail rail_electric rail_fast ship" speed="14.80" length="13.39" shape="2091.01,1556.58 2093.53,1553.75 2094.47,1551.24 2094.79,1548.36 2095.46,1544.40"/>
    </edge>
    <edge id=":1828299343_5" function="internal">
        <lane id=":1828299343_5_0" index="0" disallow="tram rail_urban rail rail_electric rail_fast ship" speed="22.22" length="14.33" shape="2091.01,1556.58 2101.94,1547.24"/>
        <lane id=":1828299343_5_1" index="1" disallow="tram rail_urban rail rail_electric rail_fast ship" speed="22.22" length="14.33" shape="2093.13,1558.98 2104.02,1549.67"/>
        <lane id=":1828299343_5_2" index="2" disallow="tram rail_urban rail rail_electric rail_fast ship" speed="22.22" length="14.33" shape="2095.25,1561.37 2106.10,1552.11"/>
    </edge>
    <edge id=":1828299346_0" function="internal">
        <lane id=":1828299346_0_0" index="0" disallow="tram rail_urban rail rail_electric rail_fast ship" speed="10.61" length="10.33" shape="2277.20,1380.24 2280.98,1380.47 2283.93,1380.42 2286.06,1380.09 2287.36,1379.48"/>
    </edge>
    <edge id=":1828299346_1" function="internal">
        <lane id=":1828299346_1_0" index="0" disallow="tram rail_urban rail rail_electric rail_fast ship" speed="11.77" length="12.81" shape="2276.92,1383.43 2281.34,1383.65 2284.89,1383.48 2287.59,1382.91 2289.42,1381.93"/>
    </edge>
    <edge id=":1828299346_2" function="internal">
        <lane id=":1828299346_2_0" index="0" disallow="tram rail_urban rail rail_electric rail_fast ship" speed="18.05" length="12.06" shape="2278.25,1387.47 2287.36,1379.48"/>
        <lane id=":1828299346_2_1" index="1" disallow="tram rail_urban rail rail_electric rail_fast ship" speed="18.05" length="12.06" shape="2280.38,1389.86 2289.42,1381.93"/>
    </edge>
    <edge id=":1828299364_0" function="internal">
        <lane id=":1828299364_0_0" index="0" disallow="tram rail_urban rail rail_electric rail_fast ship" speed="8.61" length="7.89" shape="2261.92,1452.03 2261.97,1453.44 2262.54,1455.06 2263.64,1456.90 2265.27,1458.94"/>
    </edge>
    <edge id=":1828299364_1" function="internal">
        <lane id=":1828299364_1_0" index="0" disallow="tram rail_urban rail rail_electric rail_fast ship" speed="9.31" length="9.32" shape="2261.92,1452.03 2261.57,1455.10 2261.61,1457.63 2262.04,1459.62 2262.87,1461.06"/>
    </edge>
    <edge id=":1828299364_2" function="internal">
        <lane id=":1828299364_2_0" index="0" disallow="tram rail_urban rail rail_electric rail_fast ship" speed="13.89" length="9.86" shape="2261.92,1452.03 2261.32,1455.03 2260.62,1457.02 2259.62,1458.90 2258.11,1461.59"/>
        <lane id=":1828299364_2_1" index="1" disallow="tram rail_urban rail rail_electric rail_fast ship" speed="13.89" length="9.86" shape="2258.77,1451.51 2258.22,1454.20 2257.57,1455.97 2256.66,1457.66 2255.29,1460.07"/>
    </edge>
    <edge id=":1828299367_0" function="internal">
        <lane id=":1828299367_0_0" index="0" disallow="tram rail_urban rail rail_electric rail_fast ship" speed="8.72" length="7.23" shape="2231.69,1482.65 2231.00,1481.38 2229.91,1479.39 2228.74,1477.53 2227.79,1476.62"/>
    </edge>
    <edge id=":1828299367_1" function="internal">
        <lane id=":1828299367_1_0" index="0" disallow="tram rail_urban rail rail_electric rail_fast ship" speed="10.13" length="9.92" shape="2234.43,1480.99 2232.41,1477.83 2230.69,1475.52 2229.28,1474.06 2228.18,1473.44"/>
    </edge>
    <edge id=":1828299367_2" function="internal">
        <lane id=":1828299367_2_0" index="0" disallow="tram rail_urban rail rail_electric rail_fast ship" speed="13.89" length="8.37" shape="2236.53,1476.39 2233.95,1476.86 2232.15,1477.12 2230.35,1477.07 2227.79,1476.62"/>
        <lane id=":1828299367_2_1" index="1" disallow="tram rail_urban rail rail_electric rail_fast ship" speed="13.89" length="8.37" shape="2236.00,1473.23 2233.69,1473.65 2232.08,1473.88 2230.48,1473.84 2228.18,1473.44"/>
    </edge>
    <edge id=":1828299370_0" function="internal">
        <lane id=":1828299370_0_0" index="0" disallow="tram rail_urban rail rail_electric rail_fast ship" speed="13.89" length="10.17" shape="2203.56,1456.52 2202.36,1453.58 2202.01,1451.41 2202.10,1449.13 2202.21,1445.89"/>
        <lane id=":1828299370_0_1" index="1" disallow="tram rail_urban rail rail_electric rail_fast ship" speed="13.89" length="10.17" shape="2206.43,1455.11 2205.42,1452.57 2205.16,1450.68 2205.29,1448.70 2205.41,1445.89"/>
    </edge>
    <edge id=":1828299370_2" function="internal">
        <lane id=":1828299370_2_0" index="0" disallow="tram rail_urban rail rail_electric rail_fast ship" speed="9.49" length="9.25" shape="2196.79,1453.16 2199.17,1450.93 2200.86,1448.98 2201.88,1447.30 2202.21,1445.89"/>
    </edge>
    <edge id=":1828299370_3" function="internal">
        <lane id=":1828299370_3_0" index="0" disallow="tram rail_urban rail rail_electric rail_fast ship" speed="10.73" length="11.97" shape="2198.89,1455.57 2201.75,1452.84 2203.79,1450.32 2205.01,1448.00 2205.41,1445.89"/>
    </edge>
    <edge id=":1828299373_0" function="internal">
        <lane id=":1828299373_0_0" index="0" disallow="tram rail_urban rail rail_electric rail_fast ship" speed="8.01" length="7.17" shape="2227.59,1476.58 2226.45,1477.14 2224.84,1478.61 2223.27,1480.24 2222.26,1481.28"/>
    </edge>
    <edge id=":1828299373_1" function="internal">
        <lane id=":1828299373_1_0" index="0" disallow="tram rail_urban rail rail_electric rail_fast ship" speed="8.46" length="8.06" shape="2227.59,1476.58 2225.68,1476.42 2223.80,1476.75 2221.96,1477.56 2220.16,1478.87"/>
    </edge>
    <edge id=":1828299373_2" function="internal">
        <lane id=":1828299373_2_0" index="0" disallow="tram rail_urban rail rail_electric rail_fast ship" speed="13.89" length="8.08" shape="2227.59,1476.58 2225.11,1476.07 2223.41,1475.65 2221.77,1475.08 2219.44,1474.09"/>
        <lane id=":1828299373_2_1" index="1" disallow="tram rail_urban rail rail_electric rail_fast ship" speed="13.89" length="8.08" shape="2227.99,1473.40 2225.78,1472.93 2224.27,1472.56 2222.81,1472.05 2220.74,1471.16"/>
    </edge>
    <edge id=":1828299376_0" function="internal">
        <lane id=":1828299376_0_0" index="0" disallow="tram rail_urban rail rail_electric rail_fast ship" speed="18.05" length="12.10" shape="2166.16,1401.79 2158.04,1392.73"/>
        <lane id=":1828299376_0_1" index="1" disallow="tram rail_urban rail rail_electric rail_fast ship" speed="18.05" length="12.10" shape="2168.48,1399.60 2160.45,1390.63"/>
    </edge>
    <edge id=":1828299376_2" function="internal">
        <lane id=":1828299376_2_0" index="0" disallow="tram rail_urban rail rail_electric rail_fast ship" speed="10.63" length="10.43" shape="2158.94,1402.98 2159.12,1399.16 2159.03,1396.18 2158.67,1394.03 2158.04,1392.73"/>
    </edge>
    <edge id=":1828299376_3" function="internal">
        <lane id=":1828299376_3_0" index="0" disallow="tram rail_urban rail rail_electric rail_fast ship" speed="11.79" length="12.92" shape="2162.13,1403.22 2162.30,1398.75 2162.08,1395.16 2161.46,1392.46 2160.45,1390.63"/>
    </edge>
    <edge id=":1828299381_0" function="internal">
        <lane id=":1828299381_0_0" index="0" disallow="tram rail_urban rail rail_electric rail_fast ship" speed="8.84" length="7.58" shape="2267.13,1438.90 2265.28,1440.61 2263.95,1442.19 2263.13,1443.63 2262.82,1444.92"/>
    </edge>
    <edge id=":1828299381_1" function="internal">
        <lane id=":1828299381_1_0" index="0" disallow="tram rail_urban rail rail_electric rail_fast ship" speed="10.19" length="10.21" shape="2265.07,1436.46 2262.74,1438.66 2261.06,1440.78 2260.02,1442.82 2259.62,1444.79"/>
    </edge>
    <edge id=":1828299381_2" function="internal">
        <lane id=":1828299381_2_0" index="0" disallow="tram rail_urban rail rail_electric rail_fast ship" speed="13.89" length="9.33" shape="2260.56,1435.32 2261.70,1438.07 2262.44,1440.00 2262.81,1441.99 2262.82,1444.92"/>
        <lane id=":1828299381_2_1" index="1" disallow="tram rail_urban rail rail_electric rail_fast ship" speed="13.89" length="9.33" shape="2257.58,1436.49 2258.59,1438.87 2259.25,1440.53 2259.60,1442.25 2259.62,1444.79"/>
    </edge>
    <edge id=":1828299383_0" function="internal">
        <lane id=":1828299383_0_0" index="0" disallow="tram rail_urban rail rail_electric rail_fast ship" speed="10.65" length="10.69" shape="2150.48,1493.27 2151.32,1492.06 2152.01,1489.95 2152.56,1486.94 2152.96,1483.03"/>
    </edge>
    <edge id=":1828299383_1" function="internal">
        <lane id=":1828299383_1_0" index="0" disallow="tram rail_urban rail rail_electric rail_fast ship" speed="11.80" length="13.22" shape="2152.53,1495.73 2153.83,1494.06 2154.87,1491.42 2155.64,1487.82 2156.15,1483.27"/>
    </edge>
    <edge id=":1828299383_2" function="internal">
        <lane id=":1828299383_2_0" index="0" disallow="tram rail_urban rail rail_electric rail_fast ship" speed="18.05" length="12.78" shape="2152.53,1495.73 2155.10,1492.93 2156.27,1490.49 2157.43,1488.02 2159.95,1485.17"/>
        <lane id=":1828299383_2_1" index="1" disallow="tram rail_urban rail rail_electric rail_fast ship" speed="18.05" length="12.78" shape="2152.53,1495.73 2162.04,1487.59"/>
    </edge>
    <edge id=":1828299391_0" function="internal">
        <lane id=":1828299391_0_0" index="0" disallow="tram rail_urban rail rail_electric rail_fast ship" speed="22.22" length="0.33" shape="2324.86,1556.51 2324.92,1556.64 2324.95,1556.74 2324.98,1556.83 2325.02,1556.97"/>
        <lane id=":1828299391_0_1" index="1" disallow="tram rail_urban rail rail_electric rail_fast ship" speed="22.22" length="0.33" shape="2321.90,1557.71 2321.91,1557.76 2321.93,1557.79 2321.94,1557.82 2321.95,1557.86"/>
    </edge>
    <edge id=":1829364987_0" function="internal">
        <lane id=":1829364987_0_0" index="0" disallow="tram rail_urban rail rail_electric rail_fast ship" speed="22.22" length="8.60" shape="2133.48,1025.34 2131.94,1027.32 2131.48,1029.15 2131.03,1030.99 2129.49,1032.97"/>
        <lane id=":1829364987_0_1" index="1" disallow="tram rail_urban rail rail_electric rail_fast ship" speed="22.22" length="8.60" shape="2131.40,1022.91 2129.86,1024.89 2129.40,1026.72 2128.95,1028.56 2127.41,1030.54"/>