<additional> 
<laneAreaDetector id="htddj_gsndj__29257863#2_0__7__1" lane="29257863#2_0" length="7" freq="1" file="e2output_length_7_freq_1.out.xml" pos="-7" friendlyPos="x" /> 
<laneAreaDetector id="htddj_gsndj__29257863#2_1__7__1" lane="29257863#2_1" length="7" freq="1" file="e2output_length_7_freq_1.out.xml" pos="-7" friendlyPos="x" /> 
<laneAreaDetector id="htddj_gsndj__29257863#2_2__7__1" lane="29257863#2_2" length="7" freq="1" file="e2output_length_7_freq_1.out.xml" pos="-7" friendlyPos="x" /> 
<laneAreaDetector id="htddj_gsndj__29257863#2_3__7__1" lane="29257863#2_3" length="7" freq="1" file="e2output_length_7_freq_1.out.xml" pos="-7" friendlyPos="x" /> 
<laneAreaDetector id="htddj_gsndj__29257863#2_4__7__1" lane="29257863#2_4" length="7" freq="1" file="e2output_length_7_freq_1.out.xml" pos="-7" friendlyPos="x" /> 
<laneAreaDetector id="htddj_gsndj__gsndj_n7_0__7__1" lane="gsndj_n7_0" length="7" freq="1" file="e2output_length_7_freq_1.out.xml" pos="-7" friendlyPos="x" /> 
<laneAreaDetector id="htddj_gsndj__gsndj_n7_1__7__1" lane="gsndj_n7_1" length="7" freq="1" file="e2output_length_7_freq_1.out.xml" pos="-7" friendlyPos="x" /> 
<laneAreaDetector id="htddj_gsndj__gsndj_n7_2__7__1" lane="gsndj_n7_2" length="7" freq="1" file="e2output_length_7_freq_1.out.xml" pos="-7" friendlyPos="x" /> 
<laneAreaDetector id="htddj_gsndj__gsndj_n7_3__7__1" lane="gsndj_n7_3" length="7" freq="1" file="e2output_length_7_freq_1.out.xml" pos="-7" friendlyPos="x" /> 
<laneAreaDetector id="htddj_gsndj__161701303#7.248_0__7__1" lane="161701303#7.248_0" length="7" freq="1" file="e2output_length_7_freq_1.out.xml" pos="-7" friendlyPos="x" /> 
<laneAreaDetector id="htddj_gsndj__161701303#7.248_1__7__1" lane="161701303#7.248_1" length="7" freq="1" file="e2output_length_7_freq_1.out.xml" pos="-7" friendlyPos="x" /> 
<laneAreaDetector id="htddj_gsndj__161701303#7.248_2__7__1" lane="161701303#7.248_2" length="7" freq="1" file="e2output_length_7_freq_1.out.xml" pos="-7" friendlyPos="x" /> 
<laneAreaDetector id="htddj_gsndj__161701303#7.248_3__7__1" lane="161701303#7.248_3" length="7" freq="1" file="e2output_length_7_freq_1.out.xml" pos="-7" friendlyPos="x" /> 
<laneAreaDetector id="htddj_gsndj__gsndj_s4_0__7__1" lane="gsndj_s4_0" length="7" freq="1" file="e2output_length_7_freq_1.out.xml" pos="-7" friendlyPos="x" /> 
<laneAreaDetector id="htddj_gsndj__gsndj_s4_1__7__1" lane="gsndj_s4_1" length="7" freq="1" file="e2output_length_7_freq_1.out.xml" pos="-7" friendlyPos="x" /> 
<laneAreaDetector id="htddj_gsndj__gsndj_s4_2__7__1" lane="gsndj_s4_2" length="7" freq="1" file="e2output_length_7_freq_1.out.xml" pos="-7" friendlyPos="x" /> 
<laneAreaDetector id="htddj_gsndj__gsndj_s4_3__7__1" lane="gsndj_s4_3" length="7" freq="1" file="e2output_length_7_freq_1.out.xml" pos="-7" friendlyPos="x" /> 
<laneAreaDetector id="ftddj_frj__gneE27_0__7__1" lane="gneE27_0" length="7" freq="1" file="e2output_length_7_freq_1.out.xml" pos="-7" friendlyPos="x" /> 
<laneAreaDetector id="ftddj_frj__gneE27_1__7__1" lane="gneE27_1" length="7" freq="1" file="e2output_length_7_freq_1.out.xml" pos="-7" friendlyPos="x" /> 
<laneAreaDetector id="ftddj_frj__gneE27_2__7__1" lane="gneE27_2" length="7" freq="1" file="e2output_length_7_freq_1.out.xml" pos="-7" friendlyPos="x" /> 
<laneAreaDetector id="ftddj_frj__gneE27_3__7__1" lane="gneE27_3" length="7" freq="1" file="e2output_length_7_freq_1.out.xml" pos="-7" friendlyPos="x" /> 
<laneAreaDetector id="ftddj_frj__hrj_n5_0__7__1" lane="hrj_n5_0" length="7" freq="1" file="e2output_length_7_freq_1.out.xml" pos="-7" friendlyPos="x" /> 
<laneAreaDetector id="ftddj_frj__hrj_n5_1__7__1" lane="hrj_n5_1" length="7" freq="1" file="e2output_length_7_freq_1.out.xml" pos="-7" friendlyPos="x" /> 
<laneAreaDetector id="ftddj_frj__hrj_n5_2__7__1" lane="hrj_n5_2" length="7" freq="1" file="e2output_length_7_freq_1.out.xml" pos="-7" friendlyPos="x" /> 
<laneAreaDetector id="ftddj_frj__161701303#10_0__7__1" lane="161701303#10_0" length="7" freq="1" file="e2output_length_7_freq_1.out.xml" pos="-7" friendlyPos="x" /> 
<laneAreaDetector id="ftddj_frj__161701303#10_1__7__1" lane="161701303#10_1" length="7" freq="1" file="e2output_length_7_freq_1.out.xml" pos="-7" friendlyPos="x" /> 
<laneAreaDetector id="ftddj_frj__161701303#10_2__7__1" lane="161701303#10_2" length="7" freq="1" file="e2output_length_7_freq_1.out.xml" pos="-7" friendlyPos="x" /> 
<laneAreaDetector id="ftddj_frj__161701303#10_3__7__1" lane="161701303#10_3" length="7" freq="1" file="e2output_length_7_freq_1.out.xml" pos="-7" friendlyPos="x" /> 
<laneAreaDetector id="ftddj_frj__hrj_s4_0__7__1" lane="hrj_s4_0" length="7" freq="1" file="e2output_length_7_freq_1.out.xml" pos="-7" friendlyPos="x" /> 
<laneAreaDetector id="ftddj_frj__hrj_s4_1__7__1" lane="hrj_s4_1" length="7" freq="1" file="e2output_length_7_freq_1.out.xml" pos="-7" friendlyPos="x" /> 
<laneAreaDetector id="ftddj_frj__hrj_s4_2__7__1" lane="hrj_s4_2" length="7" freq="1" file="e2output_length_7_freq_1.out.xml" pos="-7" friendlyPos="x" /> 
<laneAreaDetector id="ftddj_wjj__-72631490#0_0__7__1" lane="-72631490#0_0" length="7" freq="1" file="e2output_length_7_freq_1.out.xml" pos="-7" friendlyPos="x" /> 
<laneAreaDetector id="ftddj_wjj__-72631490#0_1__7__1" lane="-72631490#0_1" length="7" freq="1" file="e2output_length_7_freq_1.out.xml" pos="-7" friendlyPos="x" /> 
<laneAreaDetector id="ftddj_wjj__-72631490#0_2__7__1" lane="-72631490#0_2" length="7" freq="1" file="e2output_length_7_freq_1.out.xml" pos="-7" friendlyPos="x" /> 
<laneAreaDetector id="ftddj_wjj__wjj_n9_0__7__1" lane="wjj_n9_0" length="7" freq="1" file="e2output_length_7_freq_1.out.xml" pos="-7" friendlyPos="x" /> 
<laneAreaDetector id="ftddj_wjj__wjj_n9_1__7__1" lane="wjj_n9_1" length="7" freq="1" file="e2output_length_7_freq_1.out.xml" pos="-7" friendlyPos="x" /> 
<laneAreaDetector id="ftddj_wjj__wjj_n9_2__7__1" lane="wjj_n9_2" length="7" freq="1" file="e2output_length_7_freq_1.out.xml" pos="-7" friendlyPos="x" /> 
<laneAreaDetector id="ftddj_wjj__-gneE26_0__7__1" lane="-gneE26_0" length="7" freq="1" file="e2output_length_7_freq_1.out.xml" pos="-7" friendlyPos="x" /> 
<laneAreaDetector id="ftddj_wjj__-gneE26_1__7__1" lane="-gneE26_1" length="7" freq="1" file="e2output_length_7_freq_1.out.xml" pos="-7" friendlyPos="x" /> 
<laneAreaDetector id="ftddj_wjj__-gneE26_2__7__1" lane="-gneE26_2" length="7" freq="1" file="e2output_length_7_freq_1.out.xml" pos="-7" friendlyPos="x" /> 
<laneAreaDetector id="ftddj_wjj__wjj_s9_0__7__1" lane="wjj_s9_0" length="7" freq="1" file="e2output_length_7_freq_1.out.xml" pos="-7" friendlyPos="x" /> 
<laneAreaDetector id="ftddj_wjj__wjj_s9_1__7__1" lane="wjj_s9_1" length="7" freq="1" file="e2output_length_7_freq_1.out.xml" pos="-7" friendlyPos="x" /> 
<laneAreaDetector id="ftddj_wjj__wjj_s9_2__7__1" lane="wjj_s9_2" length="7" freq="1" file="e2output_length_7_freq_1.out.xml" pos="-7" friendlyPos="x" /> 
</additional> 
