<?xml version="1.0" encoding="UTF-8"?>

<!-- generated on 03/04/21 13:44:56 by Eclipse SUMO netedit Version 1.6.0
<configuration xmlns:xsi="http://www.w3.org/2001/XMLSchema-instance" xsi:noNamespaceSchemaLocation="http://sumo.dlr.de/xsd/netconvertConfiguration.xsd">

    <input>
        <sumo-net-file value="D:\SenseTime_projects\sumotools\scene\0x08_test_coordination\converted.net.xml"/>
    </input>

    <output>
        <output-file value="D:\SenseTime_projects\sumotools\scene\0x08_test_coordination\converted.net.xml"/>
    </output>

    <processing>
        <geometry.min-radius.fix.railways value="false"/>
        <geometry.max-grade.fix value="false"/>
        <offset.disable-normalization value="true"/>
        <lefthand value="false"/>
    </processing>

    <junctions>
        <no-turnarounds value="true"/>
        <junctions.corner-detail value="5"/>
        <junctions.limit-turn-speed value="5.5"/>
        <rectangular-lane-cut value="false"/>
    </junctions>

    <pedestrian>
        <walkingareas value="false"/>
    </pedestrian>

    <report>
        <aggregate-warnings value="5"/>
    </report>

</configuration>
-->

<net version="1.6" junctionCornerDetail="5" limitTurnSpeed="5.50" xmlns:xsi="http://www.w3.org/2001/XMLSchema-instance" xsi:noNamespaceSchemaLocation="http://sumo.dlr.de/xsd/net_file.xsd">

    <location netOffset="282.10,380.90" convBoundary="0.00,0.00,3172.36,847.62" origBoundary="-10000000000.00,-10000000000.00,10000000000.00,10000000000.00" projParameter="!"/>

    <edge id=":1_0" function="internal">
        <lane id=":1_0_0" index="0" speed="7.33" length="11.74" shape="547.57,445.42 547.21,441.56 546.16,438.81 544.41,437.15 541.96,436.60"/>
    </edge>
    <edge id=":1_1" function="internal">
        <lane id=":1_1_0" index="0" speed="13.89" length="33.61" shape="550.77,445.41 550.76,411.80"/>
    </edge>
    <edge id=":1_2" function="internal">
        <lane id=":1_2_0" index="0" speed="10.88" length="27.16" shape="553.97,445.41 554.91,437.35 557.76,431.60 562.51,428.15 569.16,426.99"/>
    </edge>
    <edge id=":1_3" function="internal">
        <lane id=":1_3_0" index="0" speed="6.51" length="9.03" shape="569.17,439.80 566.72,440.15 564.97,441.20 563.92,442.95 563.57,445.40"/>
    </edge>
    <edge id=":1_4" function="internal">
        <lane id=":1_4_0" index="0" speed="13.89" length="27.21" shape="569.17,436.60 541.96,436.60"/>
        <lane id=":1_4_1" index="1" speed="13.89" length="27.21" shape="569.16,433.40 541.96,433.40"/>
    </edge>
    <edge id=":1_6" function="internal">
        <lane id=":1_6_0" index="0" speed="10.88" length="27.15" shape="569.16,430.20 562.51,429.05 557.76,425.60 554.91,419.85 553.96,411.80"/>
    </edge>
    <edge id=":1_7" function="internal">
        <lane id=":1_7_0" index="0" speed="7.32" length="11.71" shape="563.56,411.81 563.91,415.65 564.96,418.40 566.71,420.05 569.16,420.59"/>
    </edge>
    <edge id=":1_8" function="internal">
        <lane id=":1_8_0" index="0" speed="13.89" length="33.60" shape="560.36,411.80 560.37,445.40"/>
    </edge>
    <edge id=":1_9" function="internal">
        <lane id=":1_9_0" index="0" speed="10.89" length="27.14" shape="557.16,411.80 556.21,419.85 553.35,425.60 548.60,429.05 541.96,430.20"/>
    </edge>
    <edge id=":1_10" function="internal">
        <lane id=":1_10_0" index="0" speed="6.51" length="9.04" shape="541.95,417.39 544.40,417.04 546.16,416.00 547.21,414.25 547.56,411.80"/>
    </edge>
    <edge id=":1_11" function="internal">
        <lane id=":1_11_0" index="0" speed="13.89" length="27.21" shape="541.95,420.59 569.16,420.59"/>
        <lane id=":1_11_1" index="1" speed="13.89" length="27.21" shape="541.95,423.79 569.16,423.79"/>
    </edge>
    <edge id=":1_13" function="internal">
        <lane id=":1_13_0" index="0" speed="10.89" length="27.15" shape="541.96,426.99 548.60,428.15 553.36,431.60 556.21,437.35 557.17,445.41"/>
    </edge>
    <edge id=":2_0" function="internal">
        <lane id=":2_0_0" index="0" speed="7.50" length="12.18" shape="980.75,445.60 980.32,441.59 979.20,438.73 977.38,437.02 974.87,436.45"/>
    </edge>
    <edge id=":2_1" function="internal">
        <lane id=":2_1_0" index="0" speed="13.89" length="33.89" shape="983.95,445.53 983.66,411.64"/>
    </edge>
    <edge id=":2_2" function="internal">
        <lane id=":2_2_0" index="0" speed="10.88" length="27.43" shape="987.15,445.46 987.98,437.31 990.78,431.49 995.56,427.99 1002.31,426.81"/>
    </edge>
    <edge id=":2_3" function="internal">
        <lane id=":2_3_0" index="0" speed="6.47" length="9.03" shape="1002.34,439.61 999.88,439.96 998.14,441.02 997.13,442.79 996.83,445.25"/>
    </edge>
    <edge id=":2_4" function="internal">
        <lane id=":2_4_0" index="0" speed="13.89" length="27.46" shape="1002.33,436.41 974.87,436.45"/>
        <lane id=":2_4_1" index="1" speed="13.89" length="27.46" shape="1002.32,433.21 974.87,433.25"/>
    </edge>
    <edge id=":2_6" function="internal">
        <lane id=":2_6_0" index="0" speed="10.91" length="27.32" shape="1002.31,430.01 995.55,428.87 990.72,425.43 987.83,419.69 986.86,411.64"/>
    </edge>
    <edge id=":2_7" function="internal">
        <lane id=":2_7_0" index="0" speed="7.36" length="11.86" shape="996.47,411.64 996.83,415.48 997.92,418.22 999.74,419.86 1002.29,420.41"/>
    </edge>
    <edge id=":2_8" function="internal">
        <lane id=":2_8_0" index="0" speed="13.89" length="33.68" shape="993.27,411.64 993.63,445.32"/>
    </edge>
    <edge id=":2_9" function="internal">
        <lane id=":2_9_0" index="0" speed="10.89" length="27.14" shape="990.07,411.64 989.12,419.69 986.26,425.44 981.51,428.89 974.87,430.05"/>
    </edge>
    <edge id=":2_10" function="internal">
        <lane id=":2_10_0" index="0" speed="6.51" length="9.03" shape="974.86,417.24 977.31,416.89 979.06,415.84 980.11,414.09 980.46,411.64"/>
    </edge>
    <edge id=":2_11" function="internal">
        <lane id=":2_11_0" index="0" speed="13.89" length="27.43" shape="974.86,420.44 1002.29,420.41"/>
        <lane id=":2_11_1" index="1" speed="13.89" length="27.43" shape="974.86,423.64 1002.30,423.61"/>
    </edge>
    <edge id=":2_13" function="internal">
        <lane id=":2_13_0" index="0" speed="11.02" length="27.40" shape="974.87,426.84 981.52,428.00 986.34,431.48 989.30,437.27 990.43,445.39"/>
    </edge>
    <edge id=":3_0" function="internal">
        <lane id=":3_0_0" index="0" speed="7.29" length="11.63" shape="1379.38,444.22 1379.04,440.42 1377.99,437.70 1376.24,436.07 1373.79,435.53"/>
    </edge>
    <edge id=":3_1" function="internal">
        <lane id=":3_1_0" index="0" speed="13.89" length="33.50" shape="1382.58,444.22 1382.60,410.72"/>
    </edge>
    <edge id=":3_2" function="internal">
        <lane id=":3_2_0" index="0" speed="10.94" length="27.21" shape="1385.78,444.22 1386.75,436.20 1389.63,430.46 1394.41,426.98 1401.10,425.77"/>
    </edge>
    <edge id=":3_3" function="internal">
        <lane id=":3_3_0" index="0" speed="6.58" length="9.21" shape="1401.22,438.57 1398.68,438.95 1396.87,440.01 1395.78,441.77 1395.42,444.21"/>
    </edge>
    <edge id=":3_4" function="internal">
        <lane id=":3_4_0" index="0" speed="13.89" length="27.39" shape="1401.19,435.37 1373.79,435.53"/>
        <lane id=":3_4_1" index="1" speed="13.89" length="27.39" shape="1401.16,432.17 1373.78,432.33"/>
    </edge>
    <edge id=":3_6" function="internal">
        <lane id=":3_6_0" index="0" speed="10.85" length="27.17" shape="1401.13,428.97 1394.43,427.89 1389.64,424.48 1386.76,418.76 1385.80,410.72"/>
    </edge>
    <edge id=":3_7" function="internal">
        <lane id=":3_7_0" index="0" speed="7.27" length="11.63" shape="1395.44,410.71 1395.79,414.52 1396.84,417.23 1398.59,418.85 1401.04,419.37"/>
    </edge>
    <edge id=":3_8" function="internal">
        <lane id=":3_8_0" index="0" speed="13.89" length="33.50" shape="1392.24,410.72 1392.22,444.21"/>
    </edge>
    <edge id=":3_9" function="internal">
        <lane id=":3_9_0" index="0" speed="10.91" length="27.18" shape="1389.04,410.72 1388.08,418.76 1385.21,424.51 1380.44,427.97 1373.78,429.13"/>
    </edge>
    <edge id=":3_10" function="internal">
        <lane id=":3_10_0" index="0" speed="6.53" length="9.08" shape="1373.75,416.33 1376.22,415.98 1377.99,414.92 1379.05,413.17 1379.40,410.72"/>
    </edge>
    <edge id=":3_11" function="internal">
        <lane id=":3_11_0" index="0" speed="13.89" length="27.30" shape="1373.75,419.53 1401.04,419.37"/>
        <lane id=":3_11_1" index="1" speed="13.89" length="27.30" shape="1373.76,422.73 1401.07,422.57"/>
    </edge>
    <edge id=":3_13" function="internal">
        <lane id=":3_13_0" index="0" speed="10.87" length="27.10" shape="1373.77,425.93 1380.44,427.06 1385.20,430.49 1388.06,436.20 1389.02,444.22"/>
    </edge>
    <edge id=":4_0" function="internal">
        <lane id=":4_0_0" index="0" speed="7.30" length="11.71" shape="1693.84,441.47 1693.49,437.63 1692.44,434.89 1690.68,433.25 1688.23,432.73"/>
    </edge>
    <edge id=":4_1" function="internal">
        <lane id=":4_1_0" index="0" speed="13.89" length="33.58" shape="1697.04,441.46 1697.03,407.88"/>
    </edge>
    <edge id=":4_2" function="internal">
        <lane id=":4_2_0" index="0" speed="10.89" length="27.23" shape="1700.24,441.45 1701.20,433.38 1704.06,427.62 1708.83,424.17 1715.51,423.03"/>
    </edge>
    <edge id=":4_3" function="internal">
        <lane id=":4_3_0" index="0" speed="6.50" length="9.03" shape="1715.48,435.83 1713.03,436.17 1711.28,437.22 1710.24,438.97 1709.89,441.42"/>
    </edge>
    <edge id=":4_4" function="internal">
        <lane id=":4_4_0" index="0" speed="13.89" length="27.28" shape="1715.49,432.63 1688.23,432.73"/>
        <lane id=":4_4_1" index="1" speed="13.89" length="27.28" shape="1715.50,429.43 1688.20,429.53"/>
    </edge>
    <edge id=":4_6" function="internal">
        <lane id=":4_6_0" index="0" speed="10.89" length="27.14" shape="1715.50,426.23 1708.83,425.07 1704.05,421.63 1701.19,415.90 1700.23,407.88"/>
    </edge>
    <edge id=":4_7" function="internal">
        <lane id=":4_7_0" index="0" speed="7.33" length="11.73" shape="1709.86,407.88 1710.21,411.70 1711.27,414.43 1713.04,416.08 1715.52,416.63"/>
    </edge>
    <edge id=":4_8" function="internal">
        <lane id=":4_8_0" index="0" speed="13.89" length="33.56" shape="1706.66,407.88 1706.69,441.43"/>
    </edge>
    <edge id=":4_9" function="internal">
        <lane id=":4_9_0" index="0" speed="10.93" length="27.19" shape="1703.46,407.88 1702.49,415.90 1699.63,421.64 1694.85,425.12 1688.17,426.33"/>
    </edge>
    <edge id=":4_10" function="internal">
        <lane id=":4_10_0" index="0" speed="6.58" length="9.19" shape="1688.05,413.53 1690.58,413.15 1692.39,412.09 1693.47,410.33 1693.83,407.89"/>
    </edge>
    <edge id=":4_11" function="internal">
        <lane id=":4_11_0" index="0" speed="13.89" length="27.43" shape="1688.08,416.73 1715.52,416.63"/>
        <lane id=":4_11_1" index="1" speed="13.89" length="27.43" shape="1688.11,419.93 1715.52,419.83"/>
    </edge>
    <edge id=":4_13" function="internal">
        <lane id=":4_13_0" index="0" speed="10.87" length="27.22" shape="1688.14,423.13 1694.83,424.22 1699.63,427.64 1702.51,433.38 1703.49,441.44"/>
    </edge>
    <edge id=":5_0" function="internal">
        <lane id=":5_0_0" index="0" speed="7.42" length="12.01" shape="2050.17,442.33 2049.80,438.39 2048.72,435.57 2046.93,433.88 2044.42,433.31"/>
    </edge>
    <edge id=":5_1" function="internal">
        <lane id=":5_1_0" index="0" speed="13.89" length="33.82" shape="2053.37,442.32 2053.25,408.50"/>
    </edge>
    <edge id=":5_2" function="internal">
        <lane id=":5_2_0" index="0" speed="10.88" length="27.36" shape="2056.57,442.30 2057.51,434.18 2060.38,428.40 2065.19,424.97 2071.93,423.87"/>
    </edge>
    <edge id=":5_3" function="internal">
        <lane id=":5_3_0" index="0" speed="6.47" length="9.03" shape="2071.81,436.67 2069.35,437.00 2067.60,438.04 2066.56,439.78 2066.22,442.24"/>
    </edge>
    <edge id=":5_4" function="internal">
        <lane id=":5_4_0" index="0" speed="13.89" length="27.43" shape="2071.84,433.47 2044.42,433.31"/>
        <lane id=":5_4_1" index="1" speed="13.89" length="27.43" shape="2071.87,430.27 2044.43,430.11"/>
    </edge>
    <edge id=":5_6" function="internal">
        <lane id=":5_6_0" index="0" speed="10.99" length="27.41" shape="2071.90,427.07 2065.17,425.85 2060.35,422.35 2057.44,416.56 2056.45,408.49"/>
    </edge>
    <edge id=":5_7" function="internal">
        <lane id=":5_7_0" index="0" speed="7.45" length="12.08" shape="2066.15,408.45 2066.51,412.37 2067.60,415.19 2069.43,416.89 2071.99,417.47"/>
    </edge>
    <edge id=":5_8" function="internal">
        <lane id=":5_8_0" index="0" speed="13.89" length="33.80" shape="2062.95,408.46 2063.02,442.26"/>
    </edge>
    <edge id=":5_9" function="internal">
        <lane id=":5_9_0" index="0" speed="10.91" length="27.26" shape="2059.75,408.47 2058.78,416.55 2055.91,422.32 2051.12,425.77 2044.44,426.91"/>
    </edge>
    <edge id=":5_10" function="internal">
        <lane id=":5_10_0" index="0" speed="6.49" length="9.03" shape="2044.46,414.11 2046.92,413.77 2048.67,412.72 2049.71,410.97 2050.05,408.51"/>
    </edge>
    <edge id=":5_11" function="internal">
        <lane id=":5_11_0" index="0" speed="13.89" length="27.52" shape="2044.46,417.31 2071.99,417.47"/>
        <lane id=":5_11_1" index="1" speed="13.89" length="27.52" shape="2044.45,420.51 2071.96,420.67"/>
    </edge>
    <edge id=":5_13" function="internal">
        <lane id=":5_13_0" index="0" speed="10.96" length="27.37" shape="2044.44,423.71 2051.13,424.88 2055.92,428.37 2058.82,434.17 2059.82,442.28"/>
    </edge>
    <edge id=":6_0" function="internal">
        <lane id=":6_0_0" index="0" speed="7.45" length="12.07" shape="2498.25,446.44 2497.88,442.51 2496.78,439.70 2494.96,438.00 2492.41,437.41"/>
    </edge>
    <edge id=":6_1" function="internal">
        <lane id=":6_1_0" index="0" speed="13.89" length="33.78" shape="2501.45,446.42 2501.40,412.64"/>
    </edge>
    <edge id=":6_2" function="internal">
        <lane id=":6_2_0" index="0" speed="10.90" length="27.25" shape="2504.65,446.41 2505.59,438.33 2508.45,432.56 2513.22,429.10 2519.91,427.95"/>
    </edge>
    <edge id=":6_3" function="internal">
        <lane id=":6_3_0" index="0" speed="6.49" length="9.03" shape="2519.90,440.75 2517.45,441.10 2515.70,442.15 2514.66,443.90 2514.32,446.35"/>
    </edge>
    <edge id=":6_4" function="internal">
        <lane id=":6_4_0" index="0" speed="13.89" length="27.47" shape="2519.90,437.55 2492.41,437.41"/>
        <lane id=":6_4_1" index="1" speed="13.89" length="27.47" shape="2519.90,434.35 2492.44,434.21"/>
    </edge>
    <edge id=":6_6" function="internal">
        <lane id=":6_6_0" index="0" speed="10.92" length="27.30" shape="2519.91,431.15 2513.22,429.99 2508.44,426.52 2505.57,420.73 2504.60,412.64"/>
    </edge>
    <edge id=":6_7" function="internal">
        <lane id=":6_7_0" index="0" speed="7.38" length="11.91" shape="2514.20,412.62 2514.56,416.53 2515.64,419.31 2517.42,420.99 2519.91,421.55"/>
    </edge>
    <edge id=":6_8" function="internal">
        <lane id=":6_8_0" index="0" speed="13.89" length="33.75" shape="2511.00,412.63 2511.12,446.37"/>
    </edge>
    <edge id=":6_9" function="internal">
        <lane id=":6_9_0" index="0" speed="10.87" length="27.29" shape="2507.80,412.63 2506.85,420.73 2503.99,426.49 2499.19,429.92 2492.47,431.01"/>
    </edge>
    <edge id=":6_10" function="internal">
        <lane id=":6_10_0" index="0" speed="6.48" length="9.03" shape="2492.59,418.21 2495.05,417.88 2496.81,416.85 2497.86,415.10 2498.20,412.65"/>
    </edge>
    <edge id=":6_11" function="internal">
        <lane id=":6_11_0" index="0" speed="13.89" length="27.36" shape="2492.56,421.41 2519.91,421.55"/>
        <lane id=":6_11_1" index="1" speed="13.89" length="27.36" shape="2492.53,424.61 2519.91,424.75"/>
    </edge>
    <edge id=":6_13" function="internal">
        <lane id=":6_13_0" index="0" speed="10.99" length="27.37" shape="2492.50,427.81 2499.21,429.03 2504.02,432.53 2506.92,438.31 2507.92,446.39"/>
    </edge>
    <edge id=":7_0" function="internal">
        <lane id=":7_0_0" index="0" speed="7.42" length="11.97" shape="2747.62,446.67 2747.24,442.74 2746.15,439.93 2744.37,438.24 2741.88,437.68"/>
    </edge>
    <edge id=":7_1" function="internal">
        <lane id=":7_1_0" index="0" speed="13.89" length="33.75" shape="2750.82,446.64 2750.69,412.89"/>
    </edge>
    <edge id=":7_2" function="internal">
        <lane id=":7_2_0" index="0" speed="10.88" length="27.29" shape="2754.02,446.61 2754.92,438.51 2757.75,432.72 2762.52,429.25 2769.22,428.10"/>
    </edge>
    <edge id=":7_3" function="internal">
        <lane id=":7_3_0" index="0" speed="6.48" length="9.03" shape="2769.22,440.90 2766.76,441.25 2765.02,442.30 2763.98,444.05 2763.66,446.51"/>
    </edge>
    <edge id=":7_4" function="internal">
        <lane id=":7_4_0" index="0" speed="13.89" length="27.34" shape="2769.22,437.70 2741.88,437.68"/>
        <lane id=":7_4_1" index="1" speed="13.89" length="27.34" shape="2769.22,434.50 2741.88,434.48"/>
    </edge>
    <edge id=":7_6" function="internal">
        <lane id=":7_6_0" index="0" speed="10.91" length="27.25" shape="2769.22,431.30 2762.51,430.14 2757.72,426.69 2754.85,420.94 2753.89,412.89"/>
    </edge>
    <edge id=":7_7" function="internal">
        <lane id=":7_7_0" index="0" speed="7.35" length="11.82" shape="2763.51,412.89 2763.87,416.74 2764.94,419.49 2766.72,421.14 2769.23,421.70"/>
    </edge>
    <edge id=":7_8" function="internal">
        <lane id=":7_8_0" index="0" speed="13.89" length="33.66" shape="2760.31,412.89 2760.46,446.54"/>
    </edge>
    <edge id=":7_9" function="internal">
        <lane id=":7_9_0" index="0" speed="10.89" length="27.16" shape="2757.11,412.89 2756.15,420.94 2753.29,426.69 2748.54,430.14 2741.88,431.28"/>
    </edge>
    <edge id=":7_10" function="internal">
        <lane id=":7_10_0" index="0" speed="6.51" length="9.03" shape="2741.89,418.48 2744.34,418.13 2746.09,417.08 2747.14,415.33 2747.49,412.88"/>
    </edge>
    <edge id=":7_11" function="internal">
        <lane id=":7_11_0" index="0" speed="13.89" length="27.34" shape="2741.89,421.68 2769.23,421.70"/>
        <lane id=":7_11_1" index="1" speed="13.89" length="27.34" shape="2741.89,424.88 2769.22,424.90"/>
    </edge>
    <edge id=":7_13" function="internal">
        <lane id=":7_13_0" index="0" speed="10.95" length="27.28" shape="2741.88,428.08 2748.54,429.24 2753.32,432.71 2756.23,438.49 2757.26,446.58"/>
    </edge>
    <edge id=":gneJ52_0" function="internal">
        <lane id=":gneJ52_0_0" index="0" speed="13.89" length="8.20" shape="671.71,436.56 669.25,437.06 667.71,438.16 666.18,439.26 663.71,439.76"/>
        <lane id=":gneJ52_0_1" index="1" speed="13.89" length="8.20" shape="671.71,436.56 663.71,436.56"/>
        <lane id=":gneJ52_0_2" index="2" speed="13.89" length="8.20" shape="671.71,433.36 663.71,433.36"/>
        <lane id=":gneJ52_0_3" index="3" speed="13.89" length="8.20" shape="671.71,430.16 663.71,430.16"/>
    </edge>
    <edge id=":gneJ53_0" function="internal">
        <lane id=":gneJ53_0_0" index="0" speed="13.89" length="8.20" shape="844.45,420.47 846.91,419.97 848.45,418.87 849.99,417.77 852.45,417.27"/>
        <lane id=":gneJ53_0_1" index="1" speed="13.89" length="8.20" shape="844.45,420.47 852.45,420.47"/>
        <lane id=":gneJ53_0_2" index="2" speed="13.89" length="8.20" shape="844.45,423.67 852.45,423.67"/>
        <lane id=":gneJ53_0_3" index="3" speed="13.89" length="8.20" shape="844.45,426.87 852.45,426.87"/>
    </edge>
    <edge id=":gneJ54_0" function="internal">
        <lane id=":gneJ54_0_0" index="0" speed="13.89" length="8.20" shape="1101.45,436.17 1098.99,436.68 1097.45,437.78 1095.92,438.88 1093.46,439.39"/>
        <lane id=":gneJ54_0_1" index="1" speed="13.89" length="8.20" shape="1101.45,436.17 1093.45,436.19"/>
        <lane id=":gneJ54_0_2" index="2" speed="13.89" length="8.20" shape="1101.44,432.97 1093.44,432.99"/>
        <lane id=":gneJ54_0_3" index="3" speed="13.89" length="8.20" shape="1101.43,429.77 1093.43,429.79"/>
    </edge>
    <edge id=":gneJ55_0" function="internal">
        <lane id=":gneJ55_0_0" index="0" speed="13.89" length="8.20" shape="1269.00,419.78 1271.46,419.27 1273.00,418.17 1274.53,417.07 1276.99,416.56"/>
        <lane id=":gneJ55_0_1" index="1" speed="13.89" length="8.20" shape="1269.00,419.78 1277.00,419.76"/>
        <lane id=":gneJ55_0_2" index="2" speed="13.89" length="8.20" shape="1269.01,422.98 1277.01,422.96"/>
        <lane id=":gneJ55_0_3" index="3" speed="13.89" length="8.20" shape="1269.02,426.18 1277.02,426.16"/>
    </edge>
    <edge id=":gneJ56_0" function="internal">
        <lane id=":gneJ56_0_0" index="0" speed="13.89" length="8.20" shape="1509.84,434.37 1507.39,434.90 1505.86,436.01 1504.33,437.12 1501.87,437.65"/>
        <lane id=":gneJ56_0_1" index="1" speed="13.89" length="8.20" shape="1509.84,434.37 1501.84,434.45"/>
        <lane id=":gneJ56_0_2" index="2" speed="13.89" length="8.20" shape="1509.81,431.17 1501.81,431.25"/>
        <lane id=":gneJ56_0_3" index="3" speed="13.89" length="8.20" shape="1509.78,427.97 1501.78,428.05"/>
    </edge>
    <edge id=":gneJ57_0" function="internal">
        <lane id=":gneJ57_0_0" index="0" speed="13.89" length="8.20" shape="1587.19,417.66 1589.64,417.13 1591.17,416.02 1592.70,414.91 1595.16,414.38"/>
        <lane id=":gneJ57_0_1" index="1" speed="13.89" length="8.20" shape="1587.19,417.66 1595.19,417.58"/>
        <lane id=":gneJ57_0_2" index="2" speed="13.89" length="8.20" shape="1587.22,420.86 1595.22,420.78"/>
        <lane id=":gneJ57_0_3" index="3" speed="13.89" length="8.20" shape="1587.25,424.06 1595.25,423.98"/>
    </edge>
    <edge id=":gneJ58_0" function="internal">
        <lane id=":gneJ58_0_0" index="0" speed="13.89" length="8.20" shape="1822.30,432.85 1819.84,433.34 1818.30,434.44 1816.76,435.54 1814.30,436.03"/>
        <lane id=":gneJ58_0_1" index="1" speed="13.89" length="8.20" shape="1822.30,432.85 1814.30,432.83"/>
        <lane id=":gneJ58_0_2" index="2" speed="13.89" length="8.20" shape="1822.31,429.65 1814.31,429.63"/>
        <lane id=":gneJ58_0_3" index="3" speed="13.89" length="8.20" shape="1822.32,426.45 1814.32,426.43"/>
    </edge>
    <edge id=":gneJ59_0" function="internal">
        <lane id=":gneJ59_0_0" index="0" speed="13.89" length="8.20" shape="1949.59,417.11 1952.05,416.62 1953.59,415.52 1955.13,414.42 1957.59,413.93"/>
        <lane id=":gneJ59_0_1" index="1" speed="13.89" length="8.20" shape="1949.59,417.11 1957.59,417.13"/>
        <lane id=":gneJ59_0_2" index="2" speed="13.89" length="8.20" shape="1949.58,420.31 1957.58,420.33"/>
        <lane id=":gneJ59_0_3" index="3" speed="13.89" length="8.20" shape="1949.57,423.51 1957.57,423.53"/>
    </edge>
    <edge id=":gneJ60_0" function="internal">
        <lane id=":gneJ60_0_0" index="0" speed="13.89" length="8.20" shape="2182.66,434.51 2180.20,434.98 2178.65,436.07 2177.10,437.16 2174.64,437.63"/>
        <lane id=":gneJ60_0_1" index="1" speed="13.89" length="8.20" shape="2182.66,434.51 2174.67,434.43"/>
        <lane id=":gneJ60_0_2" index="2" speed="13.89" length="8.20" shape="2182.69,431.31 2174.70,431.23"/>
        <lane id=":gneJ60_0_3" index="3" speed="13.89" length="8.20" shape="2182.72,428.11 2174.73,428.03"/>
    </edge>
    <edge id=":gneJ61_0" function="internal">
        <lane id=":gneJ61_0_0" index="0" speed="13.89" length="8.20" shape="2366.06,420.22 2368.52,419.75 2370.07,418.66 2371.62,417.57 2374.08,417.10"/>
        <lane id=":gneJ61_0_1" index="1" speed="13.89" length="8.20" shape="2366.06,420.22 2374.05,420.30"/>
        <lane id=":gneJ61_0_2" index="2" speed="13.89" length="8.20" shape="2366.03,423.42 2374.02,423.50"/>
        <lane id=":gneJ61_0_3" index="3" speed="13.89" length="8.20" shape="2366.00,426.62 2373.99,426.70"/>
    </edge>
    <edge id=":gneJ62_0" function="internal">
        <lane id=":gneJ62_0_0" index="0" speed="13.89" length="8.20" shape="2615.52,437.60 2613.05,438.10 2611.51,439.20 2609.98,440.30 2607.51,440.80"/>
        <lane id=":gneJ62_0_1" index="1" speed="13.89" length="8.20" shape="2615.52,437.60 2607.52,437.60"/>
        <lane id=":gneJ62_0_2" index="2" speed="13.89" length="8.20" shape="2615.52,434.40 2607.52,434.40"/>
        <lane id=":gneJ62_0_3" index="3" speed="13.89" length="8.20" shape="2615.52,431.20 2607.52,431.20"/>
    </edge>
    <edge id=":gneJ63_0" function="internal">
        <lane id=":gneJ63_0_0" index="0" speed="13.89" length="8.20" shape="2648.75,421.63 2651.22,421.13 2652.76,420.03 2654.29,418.93 2656.76,418.43"/>
        <lane id=":gneJ63_0_1" index="1" speed="13.89" length="8.20" shape="2648.75,421.63 2656.75,421.63"/>
        <lane id=":gneJ63_0_2" index="2" speed="13.89" length="8.20" shape="2648.75,424.83 2656.75,424.83"/>
        <lane id=":gneJ63_0_3" index="3" speed="13.89" length="8.20" shape="2648.75,428.03 2656.75,428.03"/>
    </edge>

    <edge id="gneE0" from="gneJ0" to="1" priority="-1">
        <lane id="gneE0_0" index="0" speed="13.89" length="527.74" shape="14.22,417.14 541.95,417.39"/>
        <lane id="gneE0_1" index="1" speed="13.89" length="527.74" shape="14.21,420.34 541.95,420.59"/>
        <lane id="gneE0_2" index="2" speed="13.89" length="527.74" shape="14.21,423.54 541.95,423.79"/>
        <lane id="gneE0_3" index="3" speed="13.89" length="527.74" shape="14.21,426.74 541.96,426.99"/>
    </edge>
    <edge id="gneE0.1045" from="2" to="gneJ55" priority="-1">
        <lane id="gneE0.1045_0" index="0" speed="13.89" length="266.71" shape="1002.29,420.41 1269.00,419.78"/>
        <lane id="gneE0.1045_1" index="1" speed="13.89" length="266.71" shape="1002.30,423.61 1269.01,422.98"/>
        <lane id="gneE0.1045_2" index="2" speed="13.89" length="266.71" shape="1002.31,426.81 1269.02,426.18"/>
    </edge>
    <edge id="gneE0.1045.284" from="gneJ55" to="3" priority="-1">
        <lane id="gneE0.1045.284_0" index="0" speed="13.89" length="96.75" shape="1276.99,416.56 1373.75,416.33"/>
        <lane id="gneE0.1045.284_1" index="1" speed="13.89" length="96.75" shape="1277.00,419.76 1373.75,419.53"/>
        <lane id="gneE0.1045.284_2" index="2" speed="13.89" length="96.75" shape="1277.01,422.96 1373.76,422.73"/>
        <lane id="gneE0.1045.284_3" index="3" speed="13.89" length="96.75" shape="1277.02,426.16 1373.77,425.93"/>
    </edge>
    <edge id="gneE0.1544" from="3" to="gneJ57" priority="-1">
        <lane id="gneE0.1544_0" index="0" speed="13.89" length="186.15" shape="1401.04,419.37 1587.19,417.66"/>
        <lane id="gneE0.1544_1" index="1" speed="13.89" length="186.15" shape="1401.07,422.57 1587.22,420.86"/>
        <lane id="gneE0.1544_2" index="2" speed="13.89" length="186.15" shape="1401.10,425.77 1587.25,424.06"/>
    </edge>
    <edge id="gneE0.1544.203" from="gneJ57" to="4" priority="-1">
        <lane id="gneE0.1544.203_0" index="0" speed="13.89" length="92.90" shape="1595.16,414.38 1688.05,413.53"/>
        <lane id="gneE0.1544.203_1" index="1" speed="13.89" length="92.90" shape="1595.19,417.58 1688.08,416.73"/>
        <lane id="gneE0.1544.203_2" index="2" speed="13.89" length="92.90" shape="1595.22,420.78 1688.11,419.93"/>
        <lane id="gneE0.1544.203_3" index="3" speed="13.89" length="92.90" shape="1595.25,423.98 1688.14,423.13"/>
    </edge>
    <edge id="gneE0.2111" from="4" to="gneJ59" priority="-1">
        <lane id="gneE0.2111_0" index="0" speed="13.89" length="234.06" shape="1715.52,416.63 1949.59,417.11"/>
        <lane id="gneE0.2111_1" index="1" speed="13.89" length="234.06" shape="1715.52,419.83 1949.58,420.31"/>
        <lane id="gneE0.2111_2" index="2" speed="13.89" length="234.06" shape="1715.51,423.03 1949.57,423.51"/>
    </edge>
    <edge id="gneE0.2111.251" from="gneJ59" to="5" priority="-1">
        <lane id="gneE0.2111.251_0" index="0" speed="13.89" length="86.87" shape="1957.59,413.93 2044.46,414.11"/>
        <lane id="gneE0.2111.251_1" index="1" speed="13.89" length="86.87" shape="1957.59,417.13 2044.46,417.31"/>
        <lane id="gneE0.2111.251_2" index="2" speed="13.89" length="86.87" shape="1957.58,420.33 2044.45,420.51"/>
        <lane id="gneE0.2111.251_3" index="3" speed="13.89" length="86.87" shape="1957.57,423.53 2044.44,423.71"/>
    </edge>
    <edge id="gneE0.2492" from="6" to="gneJ63" priority="-1">
        <lane id="gneE0.2492_0" index="0" speed="13.89" length="128.84" shape="2519.91,421.55 2648.75,421.63"/>
        <lane id="gneE0.2492_1" index="1" speed="13.89" length="128.84" shape="2519.91,424.75 2648.75,424.83"/>
        <lane id="gneE0.2492_2" index="2" speed="13.89" length="128.84" shape="2519.91,427.95 2648.75,428.03"/>
    </edge>
    <edge id="gneE0.2492.146" from="gneJ63" to="7" priority="-1">
        <lane id="gneE0.2492.146_0" index="0" speed="13.89" length="85.13" shape="2656.76,418.43 2741.89,418.48"/>
        <lane id="gneE0.2492.146_1" index="1" speed="13.89" length="85.13" shape="2656.75,421.63 2741.89,421.68"/>
        <lane id="gneE0.2492.146_2" index="2" speed="13.89" length="85.13" shape="2656.75,424.83 2741.89,424.88"/>
        <lane id="gneE0.2492.146_3" index="3" speed="13.89" length="85.13" shape="2656.75,428.03 2741.88,428.08"/>
    </edge>
    <edge id="gneE0.2507" from="5" to="gneJ61" priority="-1">